version 2
run wanSansMPLS-0-20160926-10:14:51-18025
attr configname wanSansMPLS
attr datetime 20160926-10:14:51
attr experiment wanSansMPLS
attr inifile wanMPLS.ini
attr iterationvars ""
attr iterationvars2 $repetition=0
attr measurement ""
attr network wanSansMPLS
attr processid 18025
attr repetition 0
attr replication #0
attr resultdir results
attr runnumber 0
attr seedset 0

scalar wanSansMPLS.montrealServer.networkLayer.arp 	failedARPResolution:count 	0
attr title  "ARP failed resolutions, count"
scalar wanSansMPLS.montrealServer.networkLayer.arp 	completedARPResolution:count 	0
attr title  "ARP completed resolutions, count"
scalar wanSansMPLS.montrealServer.networkLayer.arp 	initiatedARPResolution:count 	0
attr title  "ARP initiated resolutions, count"
scalar wanSansMPLS.montrealServer.networkLayer.arp 	sentReply:count 	0
attr title  "ARP replies sent, count"
scalar wanSansMPLS.montrealServer.networkLayer.arp 	sentReq:count 	0
attr title  "ARP request sent, count"
scalar wanSansMPLS.montrealServer.lo0.lo 	droppedPkBitError:count 	0
attr interpolationmode  none
attr source  dropPkBitError
attr title  "packets dropped/bit error, count"
scalar wanSansMPLS.montrealServer.lo0.lo 	droppedPkBitError:sum(packetBytes) 	0
attr interpolationmode  none
attr source  dropPkBitError
attr title  "packets dropped/bit error, sum(packetBytes)"
scalar wanSansMPLS.montrealServer.lo0.lo 	rcvdPkFromHL:count 	0
attr interpolationmode  none
attr source  packetReceivedFromUpper
attr title  "packets received from higher layer, count"
scalar wanSansMPLS.montrealServer.lo0.lo 	rcvdPkFromHL:sum(packetBytes) 	0
attr interpolationmode  none
attr source  packetReceivedFromUpper
attr title  "packets received from higher layer, sum(packetBytes)"
scalar wanSansMPLS.montrealServer.lo0.lo 	passedUpPk:count 	0
attr interpolationmode  none
attr source  packetSentToUpper
attr title  "packets passed to higher layer, count"
scalar wanSansMPLS.montrealServer.lo0.lo 	passedUpPk:sum(packetBytes) 	0
attr interpolationmode  none
attr source  packetSentToUpper
attr title  "packets passed to higher layer, sum(packetBytes)"
statistic wanSansMPLS.montrealServer.ppp[0].queue 	queueingTime:histogram
field count 0
field mean -nan
field stddev -nan
field sum 0
field sqrsum 0
field min -nan
field max -nan
attr interpolationmode  none
attr title  "queueing time, histogram"
bin	-INF	0
bin	-0.5	0
bin	-0.46666666666667	0
bin	-0.43333333333333	0
bin	-0.4	0
bin	-0.36666666666667	0
bin	-0.33333333333333	0
bin	-0.3	0
bin	-0.26666666666667	0
bin	-0.23333333333333	0
bin	-0.2	0
bin	-0.16666666666667	0
bin	-0.13333333333333	0
bin	-0.1	0
bin	-0.066666666666667	0
bin	-0.033333333333333	0
bin	0	0
bin	0.033333333333333	0
bin	0.066666666666667	0
bin	0.1	0
bin	0.13333333333333	0
bin	0.16666666666667	0
bin	0.2	0
bin	0.23333333333333	0
bin	0.26666666666667	0
bin	0.3	0
bin	0.33333333333333	0
bin	0.36666666666667	0
bin	0.4	0
bin	0.43333333333333	0
bin	0.46666666666667	0
bin	0.5	0
scalar wanSansMPLS.montrealServer.ppp[0].queue 	dropPk:count 	0
attr interpolationmode  none
attr source  dropPkByQueue
attr title  "dropped packets, count"
scalar wanSansMPLS.montrealServer.ppp[0].queue 	dropPk:sum(packetBytes) 	0
attr interpolationmode  none
attr source  dropPkByQueue
attr title  "dropped packets, sum(packetBytes)"
scalar wanSansMPLS.montrealServer.ppp[0].queue 	queueLength:max 	0
attr interpolationmode  sample-hold
attr title  "queue length, max"
scalar wanSansMPLS.montrealServer.ppp[0].queue 	queueLength:timeavg 	0
attr interpolationmode  sample-hold
attr title  "queue length, timeavg"
scalar wanSansMPLS.montrealServer.ppp[0].queue 	rcvdPk:count 	0
attr interpolationmode  none
attr title  "received packets, count"
scalar wanSansMPLS.montrealServer.ppp[0].queue 	rcvdPk:sum(packetBytes) 	0
attr interpolationmode  none
attr title  "received packets, sum(packetBytes)"
scalar wanSansMPLS.montrealServer.ppp[0].ppp 	txState:timeavg 	0
attr interpolationmode  sample-hold
attr title  "tx state, timeavg"
scalar wanSansMPLS.montrealServer.ppp[0].ppp 	droppedPkIfaceDown:count 	0
attr interpolationmode  none
attr source  dropPkIfaceDown
attr title  "packets dropped/interface down, count"
scalar wanSansMPLS.montrealServer.ppp[0].ppp 	droppedPkIfaceDown:sum(packetBytes) 	0
attr interpolationmode  none
attr source  dropPkIfaceDown
attr title  "packets dropped/interface down, sum(packetBytes)"
scalar wanSansMPLS.montrealServer.ppp[0].ppp 	droppedPkBitError:count 	0
attr interpolationmode  none
attr source  dropPkBitError
attr title  "packets dropped/bit error, count"
scalar wanSansMPLS.montrealServer.ppp[0].ppp 	droppedPkBitError:sum(packetBytes) 	0
attr interpolationmode  none
attr source  dropPkBitError
attr title  "packets dropped/bit error, sum(packetBytes)"
scalar wanSansMPLS.montrealServer.ppp[0].ppp 	rxPkOk:count 	4994
attr interpolationmode  none
attr source  rxPkOk
attr title  "packets received OK, count"
scalar wanSansMPLS.montrealServer.ppp[0].ppp 	rxPkOk:sum(packetBytes) 	674190
attr interpolationmode  none
attr source  rxPkOk
attr title  "packets received OK, sum(packetBytes)"
scalar wanSansMPLS.montrealServer.ppp[0].ppp 	rcvdPkFromHL:count 	0
attr interpolationmode  none
attr source  packetReceivedFromUpper
attr title  "packets received from higher layer, count"
scalar wanSansMPLS.montrealServer.ppp[0].ppp 	rcvdPkFromHL:sum(packetBytes) 	0
attr interpolationmode  none
attr source  packetReceivedFromUpper
attr title  "packets received from higher layer, sum(packetBytes)"
scalar wanSansMPLS.montrealServer.ppp[0].ppp 	passedUpPk:count 	4994
attr interpolationmode  none
attr source  packetSentToUpper
attr title  "packets passed to higher layer, count"
scalar wanSansMPLS.montrealServer.ppp[0].ppp 	passedUpPk:sum(packetBytes) 	639232
attr interpolationmode  none
attr source  packetSentToUpper
attr title  "packets passed to higher layer, sum(packetBytes)"
scalar wanSansMPLS.montrealServer.ppp[0].ppp 	txPk:count 	0
attr interpolationmode  none
attr source  packetSentToLower
attr title  "packets transmitted, count"
scalar wanSansMPLS.montrealServer.ppp[0].ppp 	txPk:sum(packetBytes) 	0
attr interpolationmode  none
attr source  packetSentToLower
attr title  "packets transmitted, sum(packetBytes)"
scalar wanSansMPLS.montrealServer.udpApp[0] 	rcvdPk:count 	4994
attr interpolationmode  none
attr source  rcvdPk
attr title  "packets received, count"
scalar wanSansMPLS.montrealServer.udpApp[0] 	rcvdPk:sum(packetBytes) 	499400
attr interpolationmode  none
attr source  rcvdPk
attr title  "packets received, sum(packetBytes)"
statistic wanSansMPLS.montrealServer.udpApp[0] 	endToEndDelay:histogram
field count 4994
field mean 0.058272374822041
field stddev 0.057222794728027
field sum 291.01223986127
field sqrsum 33.307294363772
field min 0.048139191239
field max 0.512641872553
attr interpolationmode  none
attr source  messageAge(rcvdPk)
attr title  "end-to-end delay, histogram"
attr unit  s
bin	-INF	0
bin	0.014785808812	0
bin	0.036912744978267	4802
bin	0.059039681144533	8
bin	0.0811666173108	9
bin	0.10329355347707	7
bin	0.12542048964333	8
bin	0.1475474258096	8
bin	0.16967436197587	9
bin	0.19180129814213	9
bin	0.2139282343084	7
bin	0.23605517047467	8
bin	0.25818210664093	8
bin	0.2803090428072	8
bin	0.30243597897347	8
bin	0.32456291513973	7
bin	0.346689851306	9
bin	0.36881678747227	9
bin	0.39094372363853	9
bin	0.4130706598048	13
bin	0.43519759597107	7
bin	0.45732453213733	16
bin	0.4794514683036	21
bin	0.50157840446987	4
bin	0.52370534063613	0
bin	0.5458322768024	0
bin	0.56795921296867	0
bin	0.59008614913493	0
bin	0.6122130853012	0
bin	0.63434002146747	0
bin	0.65646695763373	0
bin	0.6785938938	0
scalar wanSansMPLS.montrealServer.udp 	droppedPkBadChecksum:count 	0
attr interpolationmode  none
attr title  "packets dropped (checksum error), count"
scalar wanSansMPLS.montrealServer.udp 	droppedPkWrongPort:count 	0
attr interpolationmode  none
attr title  "packets dropped (wrong port), count"
scalar wanSansMPLS.montrealServer.udp 	passedUpPk:count 	4994
attr interpolationmode  none
attr title  "packets passed up, count"
scalar wanSansMPLS.montrealServer.udp 	rcvdPk:count 	4994
attr interpolationmode  none
attr source  rcvdPk
attr title  "packets received, count"
scalar wanSansMPLS.montrealServer.udp 	rcvdPk:sum(packetBytes) 	539352
attr interpolationmode  none
attr source  rcvdPk
attr title  "packets received, sum(packetBytes)"
scalar wanSansMPLS.montrealServer.udp 	sentPk:count 	0
attr interpolationmode  none
attr source  sentPk
attr title  "packets sent, count"
scalar wanSansMPLS.montrealServer.udp 	sentPk:sum(packetBytes) 	0
attr interpolationmode  none
attr source  sentPk
attr title  "packets sent, sum(packetBytes)"
scalar wanSansMPLS.vancouverRouter.networkLayer.arp 	failedARPResolution:count 	0
attr title  "ARP failed resolutions, count"
scalar wanSansMPLS.vancouverRouter.networkLayer.arp 	completedARPResolution:count 	1
attr title  "ARP completed resolutions, count"
scalar wanSansMPLS.vancouverRouter.networkLayer.arp 	initiatedARPResolution:count 	0
attr title  "ARP initiated resolutions, count"
scalar wanSansMPLS.vancouverRouter.networkLayer.arp 	sentReply:count 	1
attr title  "ARP replies sent, count"
scalar wanSansMPLS.vancouverRouter.networkLayer.arp 	sentReq:count 	0
attr title  "ARP request sent, count"
scalar wanSansMPLS.vancouverRouter.lo0.lo 	droppedPkBitError:count 	0
attr interpolationmode  none
attr source  dropPkBitError
attr title  "packets dropped/bit error, count"
scalar wanSansMPLS.vancouverRouter.lo0.lo 	droppedPkBitError:sum(packetBytes) 	0
attr interpolationmode  none
attr source  dropPkBitError
attr title  "packets dropped/bit error, sum(packetBytes)"
scalar wanSansMPLS.vancouverRouter.lo0.lo 	rcvdPkFromHL:count 	0
attr interpolationmode  none
attr source  packetReceivedFromUpper
attr title  "packets received from higher layer, count"
scalar wanSansMPLS.vancouverRouter.lo0.lo 	rcvdPkFromHL:sum(packetBytes) 	0
attr interpolationmode  none
attr source  packetReceivedFromUpper
attr title  "packets received from higher layer, sum(packetBytes)"
scalar wanSansMPLS.vancouverRouter.lo0.lo 	passedUpPk:count 	0
attr interpolationmode  none
attr source  packetSentToUpper
attr title  "packets passed to higher layer, count"
scalar wanSansMPLS.vancouverRouter.lo0.lo 	passedUpPk:sum(packetBytes) 	0
attr interpolationmode  none
attr source  packetSentToUpper
attr title  "packets passed to higher layer, sum(packetBytes)"
scalar wanSansMPLS.vancouverRouter.eth[0].mac 	"simulated time" 	100
scalar wanSansMPLS.vancouverRouter.eth[0].mac 	full-duplex 	1
scalar wanSansMPLS.vancouverRouter.eth[0].mac 	"frames/sec sent" 	0.01
scalar wanSansMPLS.vancouverRouter.eth[0].mac 	"frames/sec rcvd" 	50
scalar wanSansMPLS.vancouverRouter.eth[0].mac 	"bits/sec sent" 	5.12
scalar wanSansMPLS.vancouverRouter.eth[0].mac 	"bits/sec rcvd" 	58393.44
scalar wanSansMPLS.vancouverRouter.eth[0].mac 	"rx channel idle (%)" 	99.3840656
scalar wanSansMPLS.vancouverRouter.eth[0].mac 	"rx channel utilization (%)" 	0.6159344
scalar wanSansMPLS.vancouverRouter.eth[0].mac 	droppedPkNotForUs:count 	0
attr interpolationmode  none
attr source  dropPkNotForUs
attr title  "packets dropped/not for us, count"
scalar wanSansMPLS.vancouverRouter.eth[0].mac 	droppedPkNotForUs:sum(packetBytes) 	0
attr interpolationmode  none
attr source  dropPkNotForUs
attr title  "packets dropped/not for us, sum(packetBytes)"
scalar wanSansMPLS.vancouverRouter.eth[0].mac 	droppedPkIfaceDown:count 	0
attr interpolationmode  none
attr source  dropPkIfaceDown
attr title  "packets dropped/interface down, count"
scalar wanSansMPLS.vancouverRouter.eth[0].mac 	droppedPkIfaceDown:sum(packetBytes) 	0
attr interpolationmode  none
attr source  dropPkIfaceDown
attr title  "packets dropped/interface down, sum(packetBytes)"
scalar wanSansMPLS.vancouverRouter.eth[0].mac 	droppedPkBitError:count 	0
attr interpolationmode  none
attr source  dropPkBitError
attr title  "packets dropped/bit error, count"
scalar wanSansMPLS.vancouverRouter.eth[0].mac 	droppedPkBitError:sum(packetBytes) 	0
attr interpolationmode  none
attr source  dropPkBitError
attr title  "packets dropped/bit error, sum(packetBytes)"
scalar wanSansMPLS.vancouverRouter.eth[0].mac 	rxPkFromHL:count 	1
attr interpolationmode  none
attr source  rxPkFromHL
attr title  "packet bytes from higher layer, count"
scalar wanSansMPLS.vancouverRouter.eth[0].mac 	rxPkFromHL:sum(packetBytes) 	64
attr interpolationmode  none
attr source  rxPkFromHL
attr title  "packet bytes from higher layer, sum(packetBytes)"
scalar wanSansMPLS.vancouverRouter.eth[0].mac 	rxPausePkUnits:count 	0
attr interpolationmode  none
attr title  "pause units received, count"
scalar wanSansMPLS.vancouverRouter.eth[0].mac 	rxPausePkUnits:sum 	0
attr interpolationmode  none
attr title  "pause units received, sum"
scalar wanSansMPLS.vancouverRouter.eth[0].mac 	txPausePkUnits:count 	0
attr interpolationmode  none
attr title  "pause units sent, count"
scalar wanSansMPLS.vancouverRouter.eth[0].mac 	txPausePkUnits:sum 	0
attr interpolationmode  none
attr title  "pause units sent, sum"
scalar wanSansMPLS.vancouverRouter.eth[0].mac 	rxPkOk:count 	5000
attr interpolationmode  none
attr source  rxPkOk
attr title  "packets received OK, count"
scalar wanSansMPLS.vancouverRouter.eth[0].mac 	rxPkOk:sum(packetBytes) 	729918
attr interpolationmode  none
attr source  rxPkOk
attr title  "packets received OK, sum(packetBytes)"
scalar wanSansMPLS.vancouverRouter.eth[0].mac 	txPk:count 	1
attr interpolationmode  none
attr source  txPk
attr title  "packets transmitted, count"
scalar wanSansMPLS.vancouverRouter.eth[0].mac 	txPk:sum(packetBytes) 	64
attr interpolationmode  none
attr source  txPk
attr title  "packets transmitted, sum(packetBytes)"
scalar wanSansMPLS.vancouverRouter.eth[0].mac 	passedUpPk:count 	5000
attr interpolationmode  none
attr source  packetSentToUpper
attr title  "packets passed to higher layer, count"
scalar wanSansMPLS.vancouverRouter.eth[0].mac 	passedUpPk:sum(packetBytes) 	729918
attr interpolationmode  none
attr source  packetSentToUpper
attr title  "packets passed to higher layer, sum(packetBytes)"
scalar wanSansMPLS.vancouverRouter.eth[0].encap 	pauseSent:count 	0
attr title  "pause sent, count"
scalar wanSansMPLS.vancouverRouter.eth[0].encap 	pauseSent:sum 	0
attr title  "pause sent, sum"
scalar wanSansMPLS.vancouverRouter.eth[0].encap 	decapPk:count 	5000
attr interpolationmode  none
attr source  decapPk
attr title  "packets decapsulated, count"
scalar wanSansMPLS.vancouverRouter.eth[0].encap 	decapPk:sum(packetBytes) 	639900
attr interpolationmode  none
attr source  decapPk
attr title  "packets decapsulated, sum(packetBytes)"
scalar wanSansMPLS.vancouverRouter.eth[0].encap 	encapPk:count 	1
attr interpolationmode  none
attr source  encapPk
attr title  "packets encapsulated, count"
scalar wanSansMPLS.vancouverRouter.eth[0].encap 	encapPk:sum(packetBytes) 	28
attr interpolationmode  none
attr source  encapPk
attr title  "packets encapsulated, sum(packetBytes)"
statistic wanSansMPLS.vancouverRouter.ppp[0].queue 	queueingTime:histogram
field count 4999
field mean 0
field stddev 0
field sum 0
field sqrsum 0
field min 0
field max 0
attr interpolationmode  none
attr title  "queueing time, histogram"
bin	-INF	0
bin	-0.5	0
bin	-0.46666666666667	0
bin	-0.43333333333333	0
bin	-0.4	0
bin	-0.36666666666667	0
bin	-0.33333333333333	0
bin	-0.3	0
bin	-0.26666666666667	0
bin	-0.23333333333333	0
bin	-0.2	0
bin	-0.16666666666667	0
bin	-0.13333333333333	0
bin	-0.1	0
bin	-0.066666666666667	0
bin	-0.033333333333333	0
bin	0	4999
bin	0.033333333333333	0
bin	0.066666666666667	0
bin	0.1	0
bin	0.13333333333333	0
bin	0.16666666666667	0
bin	0.2	0
bin	0.23333333333333	0
bin	0.26666666666667	0
bin	0.3	0
bin	0.33333333333333	0
bin	0.36666666666667	0
bin	0.4	0
bin	0.43333333333333	0
bin	0.46666666666667	0
bin	0.5	0
scalar wanSansMPLS.vancouverRouter.ppp[0].queue 	dropPk:count 	0
attr interpolationmode  none
attr source  dropPkByQueue
attr title  "dropped packets, count"
scalar wanSansMPLS.vancouverRouter.ppp[0].queue 	dropPk:sum(packetBytes) 	0
attr interpolationmode  none
attr source  dropPkByQueue
attr title  "dropped packets, sum(packetBytes)"
scalar wanSansMPLS.vancouverRouter.ppp[0].queue 	queueLength:max 	0
attr interpolationmode  sample-hold
attr title  "queue length, max"
scalar wanSansMPLS.vancouverRouter.ppp[0].queue 	queueLength:timeavg 	0
attr interpolationmode  sample-hold
attr title  "queue length, timeavg"
scalar wanSansMPLS.vancouverRouter.ppp[0].queue 	rcvdPk:count 	4999
attr interpolationmode  none
attr title  "received packets, count"
scalar wanSansMPLS.vancouverRouter.ppp[0].queue 	rcvdPk:sum(packetBytes) 	639872
attr interpolationmode  none
attr title  "received packets, sum(packetBytes)"
scalar wanSansMPLS.vancouverRouter.ppp[0].ppp 	txState:timeavg 	0.0053989199999999
attr interpolationmode  sample-hold
attr title  "tx state, timeavg"
scalar wanSansMPLS.vancouverRouter.ppp[0].ppp 	droppedPkIfaceDown:count 	0
attr interpolationmode  none
attr source  dropPkIfaceDown
attr title  "packets dropped/interface down, count"
scalar wanSansMPLS.vancouverRouter.ppp[0].ppp 	droppedPkIfaceDown:sum(packetBytes) 	0
attr interpolationmode  none
attr source  dropPkIfaceDown
attr title  "packets dropped/interface down, sum(packetBytes)"
scalar wanSansMPLS.vancouverRouter.ppp[0].ppp 	droppedPkBitError:count 	0
attr interpolationmode  none
attr source  dropPkBitError
attr title  "packets dropped/bit error, count"
scalar wanSansMPLS.vancouverRouter.ppp[0].ppp 	droppedPkBitError:sum(packetBytes) 	0
attr interpolationmode  none
attr source  dropPkBitError
attr title  "packets dropped/bit error, sum(packetBytes)"
scalar wanSansMPLS.vancouverRouter.ppp[0].ppp 	rxPkOk:count 	0
attr interpolationmode  none
attr source  rxPkOk
attr title  "packets received OK, count"
scalar wanSansMPLS.vancouverRouter.ppp[0].ppp 	rxPkOk:sum(packetBytes) 	0
attr interpolationmode  none
attr source  rxPkOk
attr title  "packets received OK, sum(packetBytes)"
scalar wanSansMPLS.vancouverRouter.ppp[0].ppp 	rcvdPkFromHL:count 	4999
attr interpolationmode  none
attr source  packetReceivedFromUpper
attr title  "packets received from higher layer, count"
scalar wanSansMPLS.vancouverRouter.ppp[0].ppp 	rcvdPkFromHL:sum(packetBytes) 	639872
attr interpolationmode  none
attr source  packetReceivedFromUpper
attr title  "packets received from higher layer, sum(packetBytes)"
scalar wanSansMPLS.vancouverRouter.ppp[0].ppp 	passedUpPk:count 	0
attr interpolationmode  none
attr source  packetSentToUpper
attr title  "packets passed to higher layer, count"
scalar wanSansMPLS.vancouverRouter.ppp[0].ppp 	passedUpPk:sum(packetBytes) 	0
attr interpolationmode  none
attr source  packetSentToUpper
attr title  "packets passed to higher layer, sum(packetBytes)"
scalar wanSansMPLS.vancouverRouter.ppp[0].ppp 	txPk:count 	4999
attr interpolationmode  none
attr source  packetSentToLower
attr title  "packets transmitted, count"
scalar wanSansMPLS.vancouverRouter.ppp[0].ppp 	txPk:sum(packetBytes) 	674865
attr interpolationmode  none
attr source  packetSentToLower
attr title  "packets transmitted, sum(packetBytes)"
scalar wanSansMPLS.vancouverLAN.staSwitch[0].networkLayer.arp 	failedARPResolution:count 	0
attr title  "ARP failed resolutions, count"
scalar wanSansMPLS.vancouverLAN.staSwitch[0].networkLayer.arp 	completedARPResolution:count 	1
attr title  "ARP completed resolutions, count"
scalar wanSansMPLS.vancouverLAN.staSwitch[0].networkLayer.arp 	initiatedARPResolution:count 	1
attr title  "ARP initiated resolutions, count"
scalar wanSansMPLS.vancouverLAN.staSwitch[0].networkLayer.arp 	sentReply:count 	0
attr title  "ARP replies sent, count"
scalar wanSansMPLS.vancouverLAN.staSwitch[0].networkLayer.arp 	sentReq:count 	1
attr title  "ARP request sent, count"
scalar wanSansMPLS.vancouverLAN.staSwitch[0].lo0.lo 	droppedPkBitError:count 	0
attr interpolationmode  none
attr source  dropPkBitError
attr title  "packets dropped/bit error, count"
scalar wanSansMPLS.vancouverLAN.staSwitch[0].lo0.lo 	droppedPkBitError:sum(packetBytes) 	0
attr interpolationmode  none
attr source  dropPkBitError
attr title  "packets dropped/bit error, sum(packetBytes)"
scalar wanSansMPLS.vancouverLAN.staSwitch[0].lo0.lo 	rcvdPkFromHL:count 	0
attr interpolationmode  none
attr source  packetReceivedFromUpper
attr title  "packets received from higher layer, count"
scalar wanSansMPLS.vancouverLAN.staSwitch[0].lo0.lo 	rcvdPkFromHL:sum(packetBytes) 	0
attr interpolationmode  none
attr source  packetReceivedFromUpper
attr title  "packets received from higher layer, sum(packetBytes)"
scalar wanSansMPLS.vancouverLAN.staSwitch[0].lo0.lo 	passedUpPk:count 	0
attr interpolationmode  none
attr source  packetSentToUpper
attr title  "packets passed to higher layer, count"
scalar wanSansMPLS.vancouverLAN.staSwitch[0].lo0.lo 	passedUpPk:sum(packetBytes) 	0
attr interpolationmode  none
attr source  packetSentToUpper
attr title  "packets passed to higher layer, sum(packetBytes)"
scalar wanSansMPLS.vancouverLAN.staSwitch[0].eth[0].mac 	"simulated time" 	100
scalar wanSansMPLS.vancouverLAN.staSwitch[0].eth[0].mac 	full-duplex 	1
scalar wanSansMPLS.vancouverLAN.staSwitch[0].eth[0].mac 	"frames/sec sent" 	50
scalar wanSansMPLS.vancouverLAN.staSwitch[0].eth[0].mac 	"frames/sec rcvd" 	0.01
scalar wanSansMPLS.vancouverLAN.staSwitch[0].eth[0].mac 	"bits/sec sent" 	58393.44
scalar wanSansMPLS.vancouverLAN.staSwitch[0].eth[0].mac 	"bits/sec rcvd" 	5.12
scalar wanSansMPLS.vancouverLAN.staSwitch[0].eth[0].mac 	"rx channel idle (%)" 	99.9999424
scalar wanSansMPLS.vancouverLAN.staSwitch[0].eth[0].mac 	"rx channel utilization (%)" 	5.76e-05
scalar wanSansMPLS.vancouverLAN.staSwitch[0].eth[0].mac 	droppedPkNotForUs:count 	0
attr interpolationmode  none
attr source  dropPkNotForUs
attr title  "packets dropped/not for us, count"
scalar wanSansMPLS.vancouverLAN.staSwitch[0].eth[0].mac 	droppedPkNotForUs:sum(packetBytes) 	0
attr interpolationmode  none
attr source  dropPkNotForUs
attr title  "packets dropped/not for us, sum(packetBytes)"
scalar wanSansMPLS.vancouverLAN.staSwitch[0].eth[0].mac 	droppedPkIfaceDown:count 	0
attr interpolationmode  none
attr source  dropPkIfaceDown
attr title  "packets dropped/interface down, count"
scalar wanSansMPLS.vancouverLAN.staSwitch[0].eth[0].mac 	droppedPkIfaceDown:sum(packetBytes) 	0
attr interpolationmode  none
attr source  dropPkIfaceDown
attr title  "packets dropped/interface down, sum(packetBytes)"
scalar wanSansMPLS.vancouverLAN.staSwitch[0].eth[0].mac 	droppedPkBitError:count 	0
attr interpolationmode  none
attr source  dropPkBitError
attr title  "packets dropped/bit error, count"
scalar wanSansMPLS.vancouverLAN.staSwitch[0].eth[0].mac 	droppedPkBitError:sum(packetBytes) 	0
attr interpolationmode  none
attr source  dropPkBitError
attr title  "packets dropped/bit error, sum(packetBytes)"
scalar wanSansMPLS.vancouverLAN.staSwitch[0].eth[0].mac 	rxPkFromHL:count 	5000
attr interpolationmode  none
attr source  rxPkFromHL
attr title  "packet bytes from higher layer, count"
scalar wanSansMPLS.vancouverLAN.staSwitch[0].eth[0].mac 	rxPkFromHL:sum(packetBytes) 	729918
attr interpolationmode  none
attr source  rxPkFromHL
attr title  "packet bytes from higher layer, sum(packetBytes)"
scalar wanSansMPLS.vancouverLAN.staSwitch[0].eth[0].mac 	rxPausePkUnits:count 	0
attr interpolationmode  none
attr title  "pause units received, count"
scalar wanSansMPLS.vancouverLAN.staSwitch[0].eth[0].mac 	rxPausePkUnits:sum 	0
attr interpolationmode  none
attr title  "pause units received, sum"
scalar wanSansMPLS.vancouverLAN.staSwitch[0].eth[0].mac 	txPausePkUnits:count 	0
attr interpolationmode  none
attr title  "pause units sent, count"
scalar wanSansMPLS.vancouverLAN.staSwitch[0].eth[0].mac 	txPausePkUnits:sum 	0
attr interpolationmode  none
attr title  "pause units sent, sum"
scalar wanSansMPLS.vancouverLAN.staSwitch[0].eth[0].mac 	rxPkOk:count 	1
attr interpolationmode  none
attr source  rxPkOk
attr title  "packets received OK, count"
scalar wanSansMPLS.vancouverLAN.staSwitch[0].eth[0].mac 	rxPkOk:sum(packetBytes) 	64
attr interpolationmode  none
attr source  rxPkOk
attr title  "packets received OK, sum(packetBytes)"
scalar wanSansMPLS.vancouverLAN.staSwitch[0].eth[0].mac 	txPk:count 	5000
attr interpolationmode  none
attr source  txPk
attr title  "packets transmitted, count"
scalar wanSansMPLS.vancouverLAN.staSwitch[0].eth[0].mac 	txPk:sum(packetBytes) 	729918
attr interpolationmode  none
attr source  txPk
attr title  "packets transmitted, sum(packetBytes)"
scalar wanSansMPLS.vancouverLAN.staSwitch[0].eth[0].mac 	passedUpPk:count 	1
attr interpolationmode  none
attr source  packetSentToUpper
attr title  "packets passed to higher layer, count"
scalar wanSansMPLS.vancouverLAN.staSwitch[0].eth[0].mac 	passedUpPk:sum(packetBytes) 	64
attr interpolationmode  none
attr source  packetSentToUpper
attr title  "packets passed to higher layer, sum(packetBytes)"
scalar wanSansMPLS.vancouverLAN.staSwitch[0].eth[0].encap 	pauseSent:count 	0
attr title  "pause sent, count"
scalar wanSansMPLS.vancouverLAN.staSwitch[0].eth[0].encap 	pauseSent:sum 	0
attr title  "pause sent, sum"
scalar wanSansMPLS.vancouverLAN.staSwitch[0].eth[0].encap 	decapPk:count 	1
attr interpolationmode  none
attr source  decapPk
attr title  "packets decapsulated, count"
scalar wanSansMPLS.vancouverLAN.staSwitch[0].eth[0].encap 	decapPk:sum(packetBytes) 	28
attr interpolationmode  none
attr source  decapPk
attr title  "packets decapsulated, sum(packetBytes)"
scalar wanSansMPLS.vancouverLAN.staSwitch[0].eth[0].encap 	encapPk:count 	5000
attr interpolationmode  none
attr source  encapPk
attr title  "packets encapsulated, count"
scalar wanSansMPLS.vancouverLAN.staSwitch[0].eth[0].encap 	encapPk:sum(packetBytes) 	639900
attr interpolationmode  none
attr source  encapPk
attr title  "packets encapsulated, sum(packetBytes)"
scalar wanSansMPLS.vancouverLAN.staSwitch[0].udpApp[0] 	"packets sent" 	5000
scalar wanSansMPLS.vancouverLAN.staSwitch[0].udpApp[0] 	"packets received" 	0
scalar wanSansMPLS.vancouverLAN.staSwitch[0].udpApp[0] 	rcvdPk:count 	0
attr interpolationmode  none
attr source  rcvdPk
attr title  "packets received, count"
scalar wanSansMPLS.vancouverLAN.staSwitch[0].udpApp[0] 	rcvdPk:sum(packetBytes) 	0
attr interpolationmode  none
attr source  rcvdPk
attr title  "packets received, sum(packetBytes)"
statistic wanSansMPLS.vancouverLAN.staSwitch[0].udpApp[0] 	rcvdPkLifetime:stats
field count 0
field mean -nan
field stddev -nan
field sum 0
field sqrsum 0
field min -nan
field max -nan
attr interpolationmode  none
attr source  messageAge(rcvdPk)
attr title  "received packet lifetime, stats"
attr unit  s
scalar wanSansMPLS.vancouverLAN.staSwitch[0].udpApp[0] 	sentPk:count 	5000
attr interpolationmode  none
attr source  sentPk
attr title  "packets sent, count"
scalar wanSansMPLS.vancouverLAN.staSwitch[0].udpApp[0] 	sentPk:sum(packetBytes) 	500000
attr interpolationmode  none
attr source  sentPk
attr title  "packets sent, sum(packetBytes)"
scalar wanSansMPLS.vancouverLAN.staSwitch[0].udp 	droppedPkBadChecksum:count 	0
attr interpolationmode  none
attr title  "packets dropped (checksum error), count"
scalar wanSansMPLS.vancouverLAN.staSwitch[0].udp 	droppedPkWrongPort:count 	0
attr interpolationmode  none
attr title  "packets dropped (wrong port), count"
scalar wanSansMPLS.vancouverLAN.staSwitch[0].udp 	passedUpPk:count 	0
attr interpolationmode  none
attr title  "packets passed up, count"
scalar wanSansMPLS.vancouverLAN.staSwitch[0].udp 	rcvdPk:count 	0
attr interpolationmode  none
attr source  rcvdPk
attr title  "packets received, count"
scalar wanSansMPLS.vancouverLAN.staSwitch[0].udp 	rcvdPk:sum(packetBytes) 	0
attr interpolationmode  none
attr source  rcvdPk
attr title  "packets received, sum(packetBytes)"
scalar wanSansMPLS.vancouverLAN.staSwitch[0].udp 	sentPk:count 	4999
attr interpolationmode  none
attr source  sentPk
attr title  "packets sent, count"
scalar wanSansMPLS.vancouverLAN.staSwitch[0].udp 	sentPk:sum(packetBytes) 	539892
attr interpolationmode  none
attr source  sentPk
attr title  "packets sent, sum(packetBytes)"
scalar wanSansMPLS.vancouverLAN.switchInLan.relayUnit 	"number of received BPDUs from STP module" 	0
scalar wanSansMPLS.vancouverLAN.switchInLan.relayUnit 	"number of received frames from network (including BPDUs)" 	5001
scalar wanSansMPLS.vancouverLAN.switchInLan.relayUnit 	"number of dropped frames (including BPDUs)" 	0
scalar wanSansMPLS.vancouverLAN.switchInLan.relayUnit 	"number of delivered BPDUs to the STP module" 	0
scalar wanSansMPLS.vancouverLAN.switchInLan.relayUnit 	"number of dispatched BPDU frames to the network" 	0
scalar wanSansMPLS.vancouverLAN.switchInLan.relayUnit 	"number of dispatched non-BDPU frames to the network" 	5001
scalar wanSansMPLS.vancouverLAN.switchInLan.eth[0].mac 	"simulated time" 	100
scalar wanSansMPLS.vancouverLAN.switchInLan.eth[0].mac 	full-duplex 	1
scalar wanSansMPLS.vancouverLAN.switchInLan.eth[0].mac 	"frames/sec sent" 	50
scalar wanSansMPLS.vancouverLAN.switchInLan.eth[0].mac 	"frames/sec rcvd" 	0.01
scalar wanSansMPLS.vancouverLAN.switchInLan.eth[0].mac 	"bits/sec sent" 	58393.44
scalar wanSansMPLS.vancouverLAN.switchInLan.eth[0].mac 	"bits/sec rcvd" 	5.12
scalar wanSansMPLS.vancouverLAN.switchInLan.eth[0].mac 	"rx channel idle (%)" 	99.9999424
scalar wanSansMPLS.vancouverLAN.switchInLan.eth[0].mac 	"rx channel utilization (%)" 	5.76e-05
scalar wanSansMPLS.vancouverLAN.switchInLan.eth[0].mac 	"rx channel collision (%)" 	0
scalar wanSansMPLS.vancouverLAN.switchInLan.eth[0].mac 	collisions 	0
scalar wanSansMPLS.vancouverLAN.switchInLan.eth[0].mac 	backoffs 	0
scalar wanSansMPLS.vancouverLAN.switchInLan.eth[0].mac 	backoff:count 	0
attr interpolationmode  none
attr title  "backoff, count"
scalar wanSansMPLS.vancouverLAN.switchInLan.eth[0].mac 	collision:count 	0
attr interpolationmode  none
attr title  "collision, count"
scalar wanSansMPLS.vancouverLAN.switchInLan.eth[0].mac 	droppedPkNotForUs:count 	0
attr interpolationmode  none
attr source  dropPkNotForUs
attr title  "packets dropped/not for us, count"
scalar wanSansMPLS.vancouverLAN.switchInLan.eth[0].mac 	droppedPkNotForUs:sum(packetBytes) 	0
attr interpolationmode  none
attr source  dropPkNotForUs
attr title  "packets dropped/not for us, sum(packetBytes)"
scalar wanSansMPLS.vancouverLAN.switchInLan.eth[0].mac 	droppedPkIfaceDown:count 	0
attr interpolationmode  none
attr source  dropPkIfaceDown
attr title  "packets dropped/interface down, count"
scalar wanSansMPLS.vancouverLAN.switchInLan.eth[0].mac 	droppedPkIfaceDown:sum(packetBytes) 	0
attr interpolationmode  none
attr source  dropPkIfaceDown
attr title  "packets dropped/interface down, sum(packetBytes)"
scalar wanSansMPLS.vancouverLAN.switchInLan.eth[0].mac 	droppedPkBitError:count 	0
attr interpolationmode  none
attr source  dropPkBitError
attr title  "packets dropped/bit error, count"
scalar wanSansMPLS.vancouverLAN.switchInLan.eth[0].mac 	droppedPkBitError:sum(packetBytes) 	0
attr interpolationmode  none
attr source  dropPkBitError
attr title  "packets dropped/bit error, sum(packetBytes)"
scalar wanSansMPLS.vancouverLAN.switchInLan.eth[0].mac 	rxPkFromHL:count 	5000
attr interpolationmode  none
attr source  rxPkFromHL
attr title  "packet bytes from higher layer, count"
scalar wanSansMPLS.vancouverLAN.switchInLan.eth[0].mac 	rxPkFromHL:sum(packetBytes) 	729918
attr interpolationmode  none
attr source  rxPkFromHL
attr title  "packet bytes from higher layer, sum(packetBytes)"
scalar wanSansMPLS.vancouverLAN.switchInLan.eth[0].mac 	rxPausePkUnits:count 	0
attr interpolationmode  none
attr title  "pause units received, count"
scalar wanSansMPLS.vancouverLAN.switchInLan.eth[0].mac 	rxPausePkUnits:sum 	0
attr interpolationmode  none
attr title  "pause units received, sum"
scalar wanSansMPLS.vancouverLAN.switchInLan.eth[0].mac 	txPausePkUnits:count 	0
attr interpolationmode  none
attr title  "pause units sent, count"
scalar wanSansMPLS.vancouverLAN.switchInLan.eth[0].mac 	txPausePkUnits:sum 	0
attr interpolationmode  none
attr title  "pause units sent, sum"
scalar wanSansMPLS.vancouverLAN.switchInLan.eth[0].mac 	rxPkOk:count 	1
attr interpolationmode  none
attr source  rxPkOk
attr title  "packets received OK, count"
scalar wanSansMPLS.vancouverLAN.switchInLan.eth[0].mac 	rxPkOk:sum(packetBytes) 	64
attr interpolationmode  none
attr source  rxPkOk
attr title  "packets received OK, sum(packetBytes)"
scalar wanSansMPLS.vancouverLAN.switchInLan.eth[0].mac 	txPk:count 	5000
attr interpolationmode  none
attr source  txPk
attr title  "packets transmitted, count"
scalar wanSansMPLS.vancouverLAN.switchInLan.eth[0].mac 	txPk:sum(packetBytes) 	729918
attr interpolationmode  none
attr source  txPk
attr title  "packets transmitted, sum(packetBytes)"
scalar wanSansMPLS.vancouverLAN.switchInLan.eth[0].mac 	passedUpPk:count 	1
attr interpolationmode  none
attr source  packetSentToUpper
attr title  "packets passed to higher layer, count"
scalar wanSansMPLS.vancouverLAN.switchInLan.eth[0].mac 	passedUpPk:sum(packetBytes) 	64
attr interpolationmode  none
attr source  packetSentToUpper
attr title  "packets passed to higher layer, sum(packetBytes)"
scalar wanSansMPLS.vancouverLAN.switchInLan.eth[1].mac 	"simulated time" 	100
scalar wanSansMPLS.vancouverLAN.switchInLan.eth[1].mac 	full-duplex 	1
scalar wanSansMPLS.vancouverLAN.switchInLan.eth[1].mac 	"frames/sec sent" 	0.01
scalar wanSansMPLS.vancouverLAN.switchInLan.eth[1].mac 	"frames/sec rcvd" 	50
scalar wanSansMPLS.vancouverLAN.switchInLan.eth[1].mac 	"bits/sec sent" 	5.12
scalar wanSansMPLS.vancouverLAN.switchInLan.eth[1].mac 	"bits/sec rcvd" 	58393.44
scalar wanSansMPLS.vancouverLAN.switchInLan.eth[1].mac 	"rx channel idle (%)" 	99.3840656
scalar wanSansMPLS.vancouverLAN.switchInLan.eth[1].mac 	"rx channel utilization (%)" 	0.6159344
scalar wanSansMPLS.vancouverLAN.switchInLan.eth[1].mac 	"rx channel collision (%)" 	0
scalar wanSansMPLS.vancouverLAN.switchInLan.eth[1].mac 	collisions 	0
scalar wanSansMPLS.vancouverLAN.switchInLan.eth[1].mac 	backoffs 	0
scalar wanSansMPLS.vancouverLAN.switchInLan.eth[1].mac 	backoff:count 	0
attr interpolationmode  none
attr title  "backoff, count"
scalar wanSansMPLS.vancouverLAN.switchInLan.eth[1].mac 	collision:count 	0
attr interpolationmode  none
attr title  "collision, count"
scalar wanSansMPLS.vancouverLAN.switchInLan.eth[1].mac 	droppedPkNotForUs:count 	0
attr interpolationmode  none
attr source  dropPkNotForUs
attr title  "packets dropped/not for us, count"
scalar wanSansMPLS.vancouverLAN.switchInLan.eth[1].mac 	droppedPkNotForUs:sum(packetBytes) 	0
attr interpolationmode  none
attr source  dropPkNotForUs
attr title  "packets dropped/not for us, sum(packetBytes)"
scalar wanSansMPLS.vancouverLAN.switchInLan.eth[1].mac 	droppedPkIfaceDown:count 	0
attr interpolationmode  none
attr source  dropPkIfaceDown
attr title  "packets dropped/interface down, count"
scalar wanSansMPLS.vancouverLAN.switchInLan.eth[1].mac 	droppedPkIfaceDown:sum(packetBytes) 	0
attr interpolationmode  none
attr source  dropPkIfaceDown
attr title  "packets dropped/interface down, sum(packetBytes)"
scalar wanSansMPLS.vancouverLAN.switchInLan.eth[1].mac 	droppedPkBitError:count 	0
attr interpolationmode  none
attr source  dropPkBitError
attr title  "packets dropped/bit error, count"
scalar wanSansMPLS.vancouverLAN.switchInLan.eth[1].mac 	droppedPkBitError:sum(packetBytes) 	0
attr interpolationmode  none
attr source  dropPkBitError
attr title  "packets dropped/bit error, sum(packetBytes)"
scalar wanSansMPLS.vancouverLAN.switchInLan.eth[1].mac 	rxPkFromHL:count 	1
attr interpolationmode  none
attr source  rxPkFromHL
attr title  "packet bytes from higher layer, count"
scalar wanSansMPLS.vancouverLAN.switchInLan.eth[1].mac 	rxPkFromHL:sum(packetBytes) 	64
attr interpolationmode  none
attr source  rxPkFromHL
attr title  "packet bytes from higher layer, sum(packetBytes)"
scalar wanSansMPLS.vancouverLAN.switchInLan.eth[1].mac 	rxPausePkUnits:count 	0
attr interpolationmode  none
attr title  "pause units received, count"
scalar wanSansMPLS.vancouverLAN.switchInLan.eth[1].mac 	rxPausePkUnits:sum 	0
attr interpolationmode  none
attr title  "pause units received, sum"
scalar wanSansMPLS.vancouverLAN.switchInLan.eth[1].mac 	txPausePkUnits:count 	0
attr interpolationmode  none
attr title  "pause units sent, count"
scalar wanSansMPLS.vancouverLAN.switchInLan.eth[1].mac 	txPausePkUnits:sum 	0
attr interpolationmode  none
attr title  "pause units sent, sum"
scalar wanSansMPLS.vancouverLAN.switchInLan.eth[1].mac 	rxPkOk:count 	5000
attr interpolationmode  none
attr source  rxPkOk
attr title  "packets received OK, count"
scalar wanSansMPLS.vancouverLAN.switchInLan.eth[1].mac 	rxPkOk:sum(packetBytes) 	729918
attr interpolationmode  none
attr source  rxPkOk
attr title  "packets received OK, sum(packetBytes)"
scalar wanSansMPLS.vancouverLAN.switchInLan.eth[1].mac 	txPk:count 	1
attr interpolationmode  none
attr source  txPk
attr title  "packets transmitted, count"
scalar wanSansMPLS.vancouverLAN.switchInLan.eth[1].mac 	txPk:sum(packetBytes) 	64
attr interpolationmode  none
attr source  txPk
attr title  "packets transmitted, sum(packetBytes)"
scalar wanSansMPLS.vancouverLAN.switchInLan.eth[1].mac 	passedUpPk:count 	5000
attr interpolationmode  none
attr source  packetSentToUpper
attr title  "packets passed to higher layer, count"
scalar wanSansMPLS.vancouverLAN.switchInLan.eth[1].mac 	passedUpPk:sum(packetBytes) 	729918
attr interpolationmode  none
attr source  packetSentToUpper
attr title  "packets passed to higher layer, sum(packetBytes)"
scalar wanSansMPLS.calgaryLSR.networkLayer.arp 	failedARPResolution:count 	0
attr title  "ARP failed resolutions, count"
scalar wanSansMPLS.calgaryLSR.networkLayer.arp 	completedARPResolution:count 	0
attr title  "ARP completed resolutions, count"
scalar wanSansMPLS.calgaryLSR.networkLayer.arp 	initiatedARPResolution:count 	0
attr title  "ARP initiated resolutions, count"
scalar wanSansMPLS.calgaryLSR.networkLayer.arp 	sentReply:count 	0
attr title  "ARP replies sent, count"
scalar wanSansMPLS.calgaryLSR.networkLayer.arp 	sentReq:count 	0
attr title  "ARP request sent, count"
statistic wanSansMPLS.calgaryLSR.ppp[0].queue 	queueingTime:histogram
field count 526
field mean 0.011071753244479
field stddev 0.053743054510236
field sum 5.823742206596
field sqrsum 1.5808448884183
field min 0
field max 0.354086321649
attr interpolationmode  none
attr title  "queueing time, histogram"
bin	-INF	0
bin	-0.1770431608245	0
bin	-0.1534374060479	0
bin	-0.1298316512713	0
bin	-0.1062258964947	0
bin	-0.0826201417181	0
bin	-0.0590143869415	0
bin	-0.0354086321649	0
bin	-0.0118028773883	498
bin	0.0118028773883	2
bin	0.0354086321649	2
bin	0.0590143869415	2
bin	0.0826201417181	2
bin	0.1062258964947	2
bin	0.1298316512713	1
bin	0.1534374060479	1
bin	0.1770431608245	0
bin	0.2006489156011	1
bin	0.2242546703777	0
bin	0.2478604251543	1
bin	0.2714661799309	4
bin	0.2950719347075	6
bin	0.3186776894841	2
bin	0.3422834442607	2
bin	0.3658891990373	0
bin	0.3894949538139	0
bin	0.4131007085905	0
bin	0.4367064633671	0
bin	0.4603122181437	0
bin	0.4839179729203	0
bin	0.5075237276969	0
bin	0.5311294824735	0
scalar wanSansMPLS.calgaryLSR.ppp[0].queue 	dropPk:count 	0
attr interpolationmode  none
attr source  dropPkByQueue
attr title  "dropped packets, count"
scalar wanSansMPLS.calgaryLSR.ppp[0].queue 	dropPk:sum(packetBytes) 	0
attr interpolationmode  none
attr source  dropPkByQueue
attr title  "dropped packets, sum(packetBytes)"
scalar wanSansMPLS.calgaryLSR.ppp[0].queue 	queueLength:max 	16
attr interpolationmode  sample-hold
attr title  "queue length, max"
scalar wanSansMPLS.calgaryLSR.ppp[0].queue 	queueLength:timeavg 	0.05823742206596
attr interpolationmode  sample-hold
attr title  "queue length, timeavg"
scalar wanSansMPLS.calgaryLSR.ppp[0].queue 	rcvdPk:count 	526
attr interpolationmode  none
attr title  "received packets, count"
scalar wanSansMPLS.calgaryLSR.ppp[0].queue 	rcvdPk:sum(packetBytes) 	15340
attr interpolationmode  none
attr title  "received packets, sum(packetBytes)"
scalar wanSansMPLS.calgaryLSR.ppp[0].ppp 	txState:timeavg 	0.0237775
attr interpolationmode  sample-hold
attr title  "tx state, timeavg"
scalar wanSansMPLS.calgaryLSR.ppp[0].ppp 	droppedPkIfaceDown:count 	0
attr interpolationmode  none
attr source  dropPkIfaceDown
attr title  "packets dropped/interface down, count"
scalar wanSansMPLS.calgaryLSR.ppp[0].ppp 	droppedPkIfaceDown:sum(packetBytes) 	0
attr interpolationmode  none
attr source  dropPkIfaceDown
attr title  "packets dropped/interface down, sum(packetBytes)"
scalar wanSansMPLS.calgaryLSR.ppp[0].ppp 	droppedPkBitError:count 	0
attr interpolationmode  none
attr source  dropPkBitError
attr title  "packets dropped/bit error, count"
scalar wanSansMPLS.calgaryLSR.ppp[0].ppp 	droppedPkBitError:sum(packetBytes) 	0
attr interpolationmode  none
attr source  dropPkBitError
attr title  "packets dropped/bit error, sum(packetBytes)"
scalar wanSansMPLS.calgaryLSR.ppp[0].ppp 	rxPkOk:count 	5521
attr interpolationmode  none
attr source  rxPkOk
attr title  "packets received OK, count"
scalar wanSansMPLS.calgaryLSR.ppp[0].ppp 	rxPkOk:sum(packetBytes) 	693203
attr interpolationmode  none
attr source  rxPkOk
attr title  "packets received OK, sum(packetBytes)"
scalar wanSansMPLS.calgaryLSR.ppp[0].ppp 	rcvdPkFromHL:count 	526
attr interpolationmode  none
attr source  packetReceivedFromUpper
attr title  "packets received from higher layer, count"
scalar wanSansMPLS.calgaryLSR.ppp[0].ppp 	rcvdPkFromHL:sum(packetBytes) 	15340
attr interpolationmode  none
attr source  packetReceivedFromUpper
attr title  "packets received from higher layer, sum(packetBytes)"
scalar wanSansMPLS.calgaryLSR.ppp[0].ppp 	passedUpPk:count 	5521
attr interpolationmode  none
attr source  packetSentToUpper
attr title  "packets passed to higher layer, count"
scalar wanSansMPLS.calgaryLSR.ppp[0].ppp 	passedUpPk:sum(packetBytes) 	654556
attr interpolationmode  none
attr source  packetSentToUpper
attr title  "packets passed to higher layer, sum(packetBytes)"
scalar wanSansMPLS.calgaryLSR.ppp[0].ppp 	txPk:count 	526
attr interpolationmode  none
attr source  packetSentToLower
attr title  "packets transmitted, count"
scalar wanSansMPLS.calgaryLSR.ppp[0].ppp 	txPk:sum(packetBytes) 	19022
attr interpolationmode  none
attr source  packetSentToLower
attr title  "packets transmitted, sum(packetBytes)"
statistic wanSansMPLS.calgaryLSR.ppp[1].queue 	queueingTime:histogram
field count 512
field mean 1.6062021210937e-06
field stddev 2.6451680394283e-05
field sum 0.000822375486
field sqrsum 3.5886320444309e-07
field min 0
field max 0.000512953367
attr interpolationmode  none
attr title  "queueing time, histogram"
bin	-INF	0
bin	-0.0002564766835	0
bin	-0.00022227979236667	0
bin	-0.00018808290123333	0
bin	-0.0001538860101	0
bin	-0.00011968911896667	0
bin	-8.5492227833333e-05	0
bin	-5.12953367e-05	0
bin	-1.7098445566667e-05	510
bin	1.7098445566667e-05	0
bin	5.12953367e-05	0
bin	8.5492227833333e-05	0
bin	0.00011968911896667	0
bin	0.0001538860101	0
bin	0.00018808290123333	0
bin	0.00022227979236667	0
bin	0.0002564766835	0
bin	0.00029067357463333	1
bin	0.00032487046576667	0
bin	0.0003590673569	0
bin	0.00039326424803333	0
bin	0.00042746113916667	0
bin	0.0004616580303	0
bin	0.00049585492143333	1
bin	0.00053005181256667	0
bin	0.0005642487037	0
bin	0.00059844559483333	0
bin	0.00063264248596667	0
bin	0.0006668393771	0
bin	0.00070103626823333	0
bin	0.00073523315936667	0
bin	0.0007694300505	0
scalar wanSansMPLS.calgaryLSR.ppp[1].queue 	dropPk:count 	0
attr interpolationmode  none
attr source  dropPkByQueue
attr title  "dropped packets, count"
scalar wanSansMPLS.calgaryLSR.ppp[1].queue 	dropPk:sum(packetBytes) 	0
attr interpolationmode  none
attr source  dropPkByQueue
attr title  "dropped packets, sum(packetBytes)"
scalar wanSansMPLS.calgaryLSR.ppp[1].queue 	queueLength:max 	1
attr interpolationmode  sample-hold
attr title  "queue length, max"
scalar wanSansMPLS.calgaryLSR.ppp[1].queue 	queueLength:timeavg 	8.22375486e-06
attr interpolationmode  sample-hold
attr title  "queue length, timeavg"
scalar wanSansMPLS.calgaryLSR.ppp[1].queue 	rcvdPk:count 	512
attr interpolationmode  none
attr title  "received packets, count"
scalar wanSansMPLS.calgaryLSR.ppp[1].queue 	rcvdPk:sum(packetBytes) 	12684
attr interpolationmode  none
attr title  "received packets, sum(packetBytes)"
scalar wanSansMPLS.calgaryLSR.ppp[1].ppp 	txState:timeavg 	0.00084290155327999
attr interpolationmode  sample-hold
attr title  "tx state, timeavg"
scalar wanSansMPLS.calgaryLSR.ppp[1].ppp 	droppedPkIfaceDown:count 	0
attr interpolationmode  none
attr source  dropPkIfaceDown
attr title  "packets dropped/interface down, count"
scalar wanSansMPLS.calgaryLSR.ppp[1].ppp 	droppedPkIfaceDown:sum(packetBytes) 	0
attr interpolationmode  none
attr source  dropPkIfaceDown
attr title  "packets dropped/interface down, sum(packetBytes)"
scalar wanSansMPLS.calgaryLSR.ppp[1].ppp 	droppedPkBitError:count 	0
attr interpolationmode  none
attr source  dropPkBitError
attr title  "packets dropped/bit error, count"
scalar wanSansMPLS.calgaryLSR.ppp[1].ppp 	droppedPkBitError:sum(packetBytes) 	0
attr interpolationmode  none
attr source  dropPkBitError
attr title  "packets dropped/bit error, sum(packetBytes)"
scalar wanSansMPLS.calgaryLSR.ppp[1].ppp 	rxPkOk:count 	515
attr interpolationmode  none
attr source  rxPkOk
attr title  "packets received OK, count"
scalar wanSansMPLS.calgaryLSR.ppp[1].ppp 	rxPkOk:sum(packetBytes) 	16493
attr interpolationmode  none
attr source  rxPkOk
attr title  "packets received OK, sum(packetBytes)"
scalar wanSansMPLS.calgaryLSR.ppp[1].ppp 	rcvdPkFromHL:count 	512
attr interpolationmode  none
attr source  packetReceivedFromUpper
attr title  "packets received from higher layer, count"
scalar wanSansMPLS.calgaryLSR.ppp[1].ppp 	rcvdPkFromHL:sum(packetBytes) 	12684
attr interpolationmode  none
attr source  packetReceivedFromUpper
attr title  "packets received from higher layer, sum(packetBytes)"
scalar wanSansMPLS.calgaryLSR.ppp[1].ppp 	passedUpPk:count 	515
attr interpolationmode  none
attr source  packetSentToUpper
attr title  "packets passed to higher layer, count"
scalar wanSansMPLS.calgaryLSR.ppp[1].ppp 	passedUpPk:sum(packetBytes) 	12888
attr interpolationmode  none
attr source  packetSentToUpper
attr title  "packets passed to higher layer, sum(packetBytes)"
scalar wanSansMPLS.calgaryLSR.ppp[1].ppp 	txPk:count 	512
attr interpolationmode  none
attr source  packetSentToLower
attr title  "packets transmitted, count"
scalar wanSansMPLS.calgaryLSR.ppp[1].ppp 	txPk:sum(packetBytes) 	16268
attr interpolationmode  none
attr source  packetSentToLower
attr title  "packets transmitted, sum(packetBytes)"
statistic wanSansMPLS.calgaryLSR.ppp[2].queue 	queueingTime:histogram
field count 5514
field mean 2.805359085963e-10
field stddev 2.0831562198018e-08
field sum 1.546875e-06
field sqrsum 2.392822265625e-12
field min 0
field max 1.546875e-06
attr interpolationmode  none
attr title  "queueing time, histogram"
bin	-INF	0
bin	-7.734375e-07	0
bin	-6.703125e-07	0
bin	-5.671875e-07	0
bin	-4.640625e-07	0
bin	-3.609375e-07	0
bin	-2.578125e-07	0
bin	-1.546875e-07	0
bin	-5.15625e-08	5513
bin	5.15625e-08	0
bin	1.546875e-07	0
bin	2.578125e-07	0
bin	3.609375e-07	0
bin	4.640625e-07	0
bin	5.671875e-07	0
bin	6.703125e-07	0
bin	7.734375e-07	0
bin	8.765625e-07	0
bin	9.796875e-07	0
bin	1.0828125e-06	0
bin	1.1859375e-06	0
bin	1.2890625e-06	0
bin	1.3921875e-06	0
bin	1.4953125e-06	1
bin	1.5984375e-06	0
bin	1.7015625e-06	0
bin	1.8046875e-06	0
bin	1.9078125e-06	0
bin	2.0109375e-06	0
bin	2.1140625e-06	0
bin	2.2171875e-06	0
bin	2.3203125e-06	0
scalar wanSansMPLS.calgaryLSR.ppp[2].queue 	dropPk:count 	0
attr interpolationmode  none
attr source  dropPkByQueue
attr title  "dropped packets, count"
scalar wanSansMPLS.calgaryLSR.ppp[2].queue 	dropPk:sum(packetBytes) 	0
attr interpolationmode  none
attr source  dropPkByQueue
attr title  "dropped packets, sum(packetBytes)"
scalar wanSansMPLS.calgaryLSR.ppp[2].queue 	queueLength:max 	1
attr interpolationmode  sample-hold
attr title  "queue length, max"
scalar wanSansMPLS.calgaryLSR.ppp[2].queue 	queueLength:timeavg 	1.546875e-08
attr interpolationmode  sample-hold
attr title  "queue length, timeavg"
scalar wanSansMPLS.calgaryLSR.ppp[2].queue 	rcvdPk:count 	5514
attr interpolationmode  none
attr title  "received packets, count"
scalar wanSansMPLS.calgaryLSR.ppp[2].queue 	rcvdPk:sum(packetBytes) 	652688
attr interpolationmode  none
attr title  "received packets, sum(packetBytes)"
scalar wanSansMPLS.calgaryLSR.ppp[2].ppp 	txState:timeavg 	0.0001080134375
attr interpolationmode  sample-hold
attr title  "tx state, timeavg"
scalar wanSansMPLS.calgaryLSR.ppp[2].ppp 	droppedPkIfaceDown:count 	0
attr interpolationmode  none
attr source  dropPkIfaceDown
attr title  "packets dropped/interface down, count"
scalar wanSansMPLS.calgaryLSR.ppp[2].ppp 	droppedPkIfaceDown:sum(packetBytes) 	0
attr interpolationmode  none
attr source  dropPkIfaceDown
attr title  "packets dropped/interface down, sum(packetBytes)"
scalar wanSansMPLS.calgaryLSR.ppp[2].ppp 	droppedPkBitError:count 	0
attr interpolationmode  none
attr source  dropPkBitError
attr title  "packets dropped/bit error, count"
scalar wanSansMPLS.calgaryLSR.ppp[2].ppp 	droppedPkBitError:sum(packetBytes) 	0
attr interpolationmode  none
attr source  dropPkBitError
attr title  "packets dropped/bit error, sum(packetBytes)"
scalar wanSansMPLS.calgaryLSR.ppp[2].ppp 	rxPkOk:count 	508
attr interpolationmode  none
attr source  rxPkOk
attr title  "packets received OK, count"
scalar wanSansMPLS.calgaryLSR.ppp[2].ppp 	rxPkOk:sum(packetBytes) 	15368
attr interpolationmode  none
attr source  rxPkOk
attr title  "packets received OK, sum(packetBytes)"
scalar wanSansMPLS.calgaryLSR.ppp[2].ppp 	rcvdPkFromHL:count 	5514
attr interpolationmode  none
attr source  packetReceivedFromUpper
attr title  "packets received from higher layer, count"
scalar wanSansMPLS.calgaryLSR.ppp[2].ppp 	rcvdPkFromHL:sum(packetBytes) 	652688
attr interpolationmode  none
attr source  packetReceivedFromUpper
attr title  "packets received from higher layer, sum(packetBytes)"
scalar wanSansMPLS.calgaryLSR.ppp[2].ppp 	passedUpPk:count 	508
attr interpolationmode  none
attr source  packetSentToUpper
attr title  "packets passed to higher layer, count"
scalar wanSansMPLS.calgaryLSR.ppp[2].ppp 	passedUpPk:sum(packetBytes) 	11812
attr interpolationmode  none
attr source  packetSentToUpper
attr title  "packets passed to higher layer, sum(packetBytes)"
scalar wanSansMPLS.calgaryLSR.ppp[2].ppp 	txPk:count 	5514
attr interpolationmode  none
attr source  packetSentToLower
attr title  "packets transmitted, count"
scalar wanSansMPLS.calgaryLSR.ppp[2].ppp 	txPk:sum(packetBytes) 	691286
attr interpolationmode  none
attr source  packetSentToLower
attr title  "packets transmitted, sum(packetBytes)"
scalar wanSansMPLS.calgaryLSR.lo0.lo 	droppedPkBitError:count 	0
attr interpolationmode  none
attr source  dropPkBitError
attr title  "packets dropped/bit error, count"
scalar wanSansMPLS.calgaryLSR.lo0.lo 	droppedPkBitError:sum(packetBytes) 	0
attr interpolationmode  none
attr source  dropPkBitError
attr title  "packets dropped/bit error, sum(packetBytes)"
scalar wanSansMPLS.calgaryLSR.lo0.lo 	rcvdPkFromHL:count 	0
attr interpolationmode  none
attr source  packetReceivedFromUpper
attr title  "packets received from higher layer, count"
scalar wanSansMPLS.calgaryLSR.lo0.lo 	rcvdPkFromHL:sum(packetBytes) 	0
attr interpolationmode  none
attr source  packetReceivedFromUpper
attr title  "packets received from higher layer, sum(packetBytes)"
scalar wanSansMPLS.calgaryLSR.lo0.lo 	passedUpPk:count 	0
attr interpolationmode  none
attr source  packetSentToUpper
attr title  "packets passed to higher layer, count"
scalar wanSansMPLS.calgaryLSR.lo0.lo 	passedUpPk:sum(packetBytes) 	0
attr interpolationmode  none
attr source  packetSentToUpper
attr title  "packets passed to higher layer, sum(packetBytes)"
scalar wanSansMPLS.vancouverLSR.networkLayer.arp 	failedARPResolution:count 	0
attr title  "ARP failed resolutions, count"
scalar wanSansMPLS.vancouverLSR.networkLayer.arp 	completedARPResolution:count 	0
attr title  "ARP completed resolutions, count"
scalar wanSansMPLS.vancouverLSR.networkLayer.arp 	initiatedARPResolution:count 	0
attr title  "ARP initiated resolutions, count"
scalar wanSansMPLS.vancouverLSR.networkLayer.arp 	sentReply:count 	0
attr title  "ARP replies sent, count"
scalar wanSansMPLS.vancouverLSR.networkLayer.arp 	sentReq:count 	0
attr title  "ARP request sent, count"
statistic wanSansMPLS.vancouverLSR.ppp[0].queue 	queueingTime:histogram
field count 5522
field mean 0.012827300183939
field stddev 0.061780984530103
field sum 70.832351615709
field sqrsum 21.981637800247
field min 0
field max 0.46554571275
attr interpolationmode  none
attr title  "queueing time, histogram"
bin	-INF	0
bin	-0.232772856375	0
bin	-0.201736475525	0
bin	-0.170700094675	0
bin	-0.139663713825	0
bin	-0.108627332975	0
bin	-0.077590952125	0
bin	-0.046554571275	0
bin	-0.015518190425	5288
bin	0.015518190425	13
bin	0.046554571275	13
bin	0.077590952125	15
bin	0.108627332975	15
bin	0.139663713825	12
bin	0.170700094675	12
bin	0.201736475525	13
bin	0.232772856375	12
bin	0.263809237225	12
bin	0.294845618075	13
bin	0.325881998925	17
bin	0.356918379775	22
bin	0.387954760625	17
bin	0.418991141475	37
bin	0.450027522325	11
bin	0.481063903175	0
bin	0.512100284025	0
bin	0.543136664875	0
bin	0.574173045725	0
bin	0.605209426575	0
bin	0.636245807425	0
bin	0.667282188275	0
bin	0.698318569125	0
scalar wanSansMPLS.vancouverLSR.ppp[0].queue 	dropPk:count 	0
attr interpolationmode  none
attr source  dropPkByQueue
attr title  "dropped packets, count"
scalar wanSansMPLS.vancouverLSR.ppp[0].queue 	dropPk:sum(packetBytes) 	0
attr interpolationmode  none
attr source  dropPkByQueue
attr title  "dropped packets, sum(packetBytes)"
scalar wanSansMPLS.vancouverLSR.ppp[0].queue 	queueLength:max 	33
attr interpolationmode  sample-hold
attr title  "queue length, max"
scalar wanSansMPLS.vancouverLSR.ppp[0].queue 	queueLength:timeavg 	0.70832351615709
attr interpolationmode  sample-hold
attr title  "queue length, timeavg"
scalar wanSansMPLS.vancouverLSR.ppp[0].queue 	rcvdPk:count 	5522
attr interpolationmode  none
attr title  "received packets, count"
scalar wanSansMPLS.vancouverLSR.ppp[0].queue 	rcvdPk:sum(packetBytes) 	654684
attr interpolationmode  none
attr title  "received packets, sum(packetBytes)"
scalar wanSansMPLS.vancouverLSR.ppp[0].ppp 	txState:timeavg 	0.86667249999996
attr interpolationmode  sample-hold
attr title  "tx state, timeavg"
scalar wanSansMPLS.vancouverLSR.ppp[0].ppp 	droppedPkIfaceDown:count 	0
attr interpolationmode  none
attr source  dropPkIfaceDown
attr title  "packets dropped/interface down, count"
scalar wanSansMPLS.vancouverLSR.ppp[0].ppp 	droppedPkIfaceDown:sum(packetBytes) 	0
attr interpolationmode  none
attr source  dropPkIfaceDown
attr title  "packets dropped/interface down, sum(packetBytes)"
scalar wanSansMPLS.vancouverLSR.ppp[0].ppp 	droppedPkBitError:count 	0
attr interpolationmode  none
attr source  dropPkBitError
attr title  "packets dropped/bit error, count"
scalar wanSansMPLS.vancouverLSR.ppp[0].ppp 	droppedPkBitError:sum(packetBytes) 	0
attr interpolationmode  none
attr source  dropPkBitError
attr title  "packets dropped/bit error, sum(packetBytes)"
scalar wanSansMPLS.vancouverLSR.ppp[0].ppp 	rxPkOk:count 	526
attr interpolationmode  none
attr source  rxPkOk
attr title  "packets received OK, count"
scalar wanSansMPLS.vancouverLSR.ppp[0].ppp 	rxPkOk:sum(packetBytes) 	19022
attr interpolationmode  none
attr source  rxPkOk
attr title  "packets received OK, sum(packetBytes)"
scalar wanSansMPLS.vancouverLSR.ppp[0].ppp 	rcvdPkFromHL:count 	5522
attr interpolationmode  none
attr source  packetReceivedFromUpper
attr title  "packets received from higher layer, count"
scalar wanSansMPLS.vancouverLSR.ppp[0].ppp 	rcvdPkFromHL:sum(packetBytes) 	654684
attr interpolationmode  none
attr source  packetReceivedFromUpper
attr title  "packets received from higher layer, sum(packetBytes)"
scalar wanSansMPLS.vancouverLSR.ppp[0].ppp 	passedUpPk:count 	526
attr interpolationmode  none
attr source  packetSentToUpper
attr title  "packets passed to higher layer, count"
scalar wanSansMPLS.vancouverLSR.ppp[0].ppp 	passedUpPk:sum(packetBytes) 	15340
attr interpolationmode  none
attr source  packetSentToUpper
attr title  "packets passed to higher layer, sum(packetBytes)"
scalar wanSansMPLS.vancouverLSR.ppp[0].ppp 	txPk:count 	5522
attr interpolationmode  none
attr source  packetSentToLower
attr title  "packets transmitted, count"
scalar wanSansMPLS.vancouverLSR.ppp[0].ppp 	txPk:sum(packetBytes) 	693338
attr interpolationmode  none
attr source  packetSentToLower
attr title  "packets transmitted, sum(packetBytes)"
statistic wanSansMPLS.vancouverLSR.ppp[1].queue 	queueingTime:histogram
field count 504
field mean 1.0177646170635e-06
field stddev 2.2848758984597e-05
field sum 0.000512953367
field sqrsum 2.6312115671664e-07
field min 0
field max 0.000512953367
attr interpolationmode  none
attr title  "queueing time, histogram"
bin	-INF	0
bin	-0.0002564766835	0
bin	-0.00022227979236667	0
bin	-0.00018808290123333	0
bin	-0.0001538860101	0
bin	-0.00011968911896667	0
bin	-8.5492227833333e-05	0
bin	-5.12953367e-05	0
bin	-1.7098445566667e-05	503
bin	1.7098445566667e-05	0
bin	5.12953367e-05	0
bin	8.5492227833333e-05	0
bin	0.00011968911896667	0
bin	0.0001538860101	0
bin	0.00018808290123333	0
bin	0.00022227979236667	0
bin	0.0002564766835	0
bin	0.00029067357463333	0
bin	0.00032487046576667	0
bin	0.0003590673569	0
bin	0.00039326424803333	0
bin	0.00042746113916667	0
bin	0.0004616580303	0
bin	0.00049585492143333	1
bin	0.00053005181256667	0
bin	0.0005642487037	0
bin	0.00059844559483333	0
bin	0.00063264248596667	0
bin	0.0006668393771	0
bin	0.00070103626823333	0
bin	0.00073523315936667	0
bin	0.0007694300505	0
scalar wanSansMPLS.vancouverLSR.ppp[1].queue 	dropPk:count 	0
attr interpolationmode  none
attr source  dropPkByQueue
attr title  "dropped packets, count"
scalar wanSansMPLS.vancouverLSR.ppp[1].queue 	dropPk:sum(packetBytes) 	0
attr interpolationmode  none
attr source  dropPkByQueue
attr title  "dropped packets, sum(packetBytes)"
scalar wanSansMPLS.vancouverLSR.ppp[1].queue 	queueLength:max 	1
attr interpolationmode  sample-hold
attr title  "queue length, max"
scalar wanSansMPLS.vancouverLSR.ppp[1].queue 	queueLength:timeavg 	5.12953367e-06
attr interpolationmode  sample-hold
attr title  "queue length, timeavg"
scalar wanSansMPLS.vancouverLSR.ppp[1].queue 	rcvdPk:count 	504
attr interpolationmode  none
attr title  "received packets, count"
scalar wanSansMPLS.vancouverLSR.ppp[1].queue 	rcvdPk:sum(packetBytes) 	11732
attr interpolationmode  none
attr title  "received packets, sum(packetBytes)"
scalar wanSansMPLS.vancouverLSR.ppp[1].ppp 	txState:timeavg 	0.00079067357406999
attr interpolationmode  sample-hold
attr title  "tx state, timeavg"
scalar wanSansMPLS.vancouverLSR.ppp[1].ppp 	droppedPkIfaceDown:count 	0
attr interpolationmode  none
attr source  dropPkIfaceDown
attr title  "packets dropped/interface down, count"
scalar wanSansMPLS.vancouverLSR.ppp[1].ppp 	droppedPkIfaceDown:sum(packetBytes) 	0
attr interpolationmode  none
attr source  dropPkIfaceDown
attr title  "packets dropped/interface down, sum(packetBytes)"
scalar wanSansMPLS.vancouverLSR.ppp[1].ppp 	droppedPkBitError:count 	0
attr interpolationmode  none
attr source  dropPkBitError
attr title  "packets dropped/bit error, count"
scalar wanSansMPLS.vancouverLSR.ppp[1].ppp 	droppedPkBitError:sum(packetBytes) 	0
attr interpolationmode  none
attr source  dropPkBitError
attr title  "packets dropped/bit error, sum(packetBytes)"
scalar wanSansMPLS.vancouverLSR.ppp[1].ppp 	rxPkOk:count 	523
attr interpolationmode  none
attr source  rxPkOk
attr title  "packets received OK, count"
scalar wanSansMPLS.vancouverLSR.ppp[1].ppp 	rxPkOk:sum(packetBytes) 	18149
attr interpolationmode  none
attr source  rxPkOk
attr title  "packets received OK, sum(packetBytes)"
scalar wanSansMPLS.vancouverLSR.ppp[1].ppp 	rcvdPkFromHL:count 	504
attr interpolationmode  none
attr source  packetReceivedFromUpper
attr title  "packets received from higher layer, count"
scalar wanSansMPLS.vancouverLSR.ppp[1].ppp 	rcvdPkFromHL:sum(packetBytes) 	11732
attr interpolationmode  none
attr source  packetReceivedFromUpper
attr title  "packets received from higher layer, sum(packetBytes)"
scalar wanSansMPLS.vancouverLSR.ppp[1].ppp 	passedUpPk:count 	523
attr interpolationmode  none
attr source  packetSentToUpper
attr title  "packets passed to higher layer, count"
scalar wanSansMPLS.vancouverLSR.ppp[1].ppp 	passedUpPk:sum(packetBytes) 	14488
attr interpolationmode  none
attr source  packetSentToUpper
attr title  "packets passed to higher layer, sum(packetBytes)"
scalar wanSansMPLS.vancouverLSR.ppp[1].ppp 	txPk:count 	504
attr interpolationmode  none
attr source  packetSentToLower
attr title  "packets transmitted, count"
scalar wanSansMPLS.vancouverLSR.ppp[1].ppp 	txPk:sum(packetBytes) 	15260
attr interpolationmode  none
attr source  packetSentToLower
attr title  "packets transmitted, sum(packetBytes)"
statistic wanSansMPLS.vancouverLSR.ppp[2].queue 	queueingTime:histogram
field count 0
field mean -nan
field stddev -nan
field sum 0
field sqrsum 0
field min -nan
field max -nan
attr interpolationmode  none
attr title  "queueing time, histogram"
bin	-INF	0
bin	-0.5	0
bin	-0.46666666666667	0
bin	-0.43333333333333	0
bin	-0.4	0
bin	-0.36666666666667	0
bin	-0.33333333333333	0
bin	-0.3	0
bin	-0.26666666666667	0
bin	-0.23333333333333	0
bin	-0.2	0
bin	-0.16666666666667	0
bin	-0.13333333333333	0
bin	-0.1	0
bin	-0.066666666666667	0
bin	-0.033333333333333	0
bin	0	0
bin	0.033333333333333	0
bin	0.066666666666667	0
bin	0.1	0
bin	0.13333333333333	0
bin	0.16666666666667	0
bin	0.2	0
bin	0.23333333333333	0
bin	0.26666666666667	0
bin	0.3	0
bin	0.33333333333333	0
bin	0.36666666666667	0
bin	0.4	0
bin	0.43333333333333	0
bin	0.46666666666667	0
bin	0.5	0
scalar wanSansMPLS.vancouverLSR.ppp[2].queue 	dropPk:count 	0
attr interpolationmode  none
attr source  dropPkByQueue
attr title  "dropped packets, count"
scalar wanSansMPLS.vancouverLSR.ppp[2].queue 	dropPk:sum(packetBytes) 	0
attr interpolationmode  none
attr source  dropPkByQueue
attr title  "dropped packets, sum(packetBytes)"
scalar wanSansMPLS.vancouverLSR.ppp[2].queue 	queueLength:max 	0
attr interpolationmode  sample-hold
attr title  "queue length, max"
scalar wanSansMPLS.vancouverLSR.ppp[2].queue 	queueLength:timeavg 	0
attr interpolationmode  sample-hold
attr title  "queue length, timeavg"
scalar wanSansMPLS.vancouverLSR.ppp[2].queue 	rcvdPk:count 	0
attr interpolationmode  none
attr title  "received packets, count"
scalar wanSansMPLS.vancouverLSR.ppp[2].queue 	rcvdPk:sum(packetBytes) 	0
attr interpolationmode  none
attr title  "received packets, sum(packetBytes)"
scalar wanSansMPLS.vancouverLSR.ppp[2].ppp 	txState:timeavg 	0
attr interpolationmode  sample-hold
attr title  "tx state, timeavg"
scalar wanSansMPLS.vancouverLSR.ppp[2].ppp 	droppedPkIfaceDown:count 	0
attr interpolationmode  none
attr source  dropPkIfaceDown
attr title  "packets dropped/interface down, count"
scalar wanSansMPLS.vancouverLSR.ppp[2].ppp 	droppedPkIfaceDown:sum(packetBytes) 	0
attr interpolationmode  none
attr source  dropPkIfaceDown
attr title  "packets dropped/interface down, sum(packetBytes)"
scalar wanSansMPLS.vancouverLSR.ppp[2].ppp 	droppedPkBitError:count 	0
attr interpolationmode  none
attr source  dropPkBitError
attr title  "packets dropped/bit error, count"
scalar wanSansMPLS.vancouverLSR.ppp[2].ppp 	droppedPkBitError:sum(packetBytes) 	0
attr interpolationmode  none
attr source  dropPkBitError
attr title  "packets dropped/bit error, sum(packetBytes)"
scalar wanSansMPLS.vancouverLSR.ppp[2].ppp 	rxPkOk:count 	4999
attr interpolationmode  none
attr source  rxPkOk
attr title  "packets received OK, count"
scalar wanSansMPLS.vancouverLSR.ppp[2].ppp 	rxPkOk:sum(packetBytes) 	674865
attr interpolationmode  none
attr source  rxPkOk
attr title  "packets received OK, sum(packetBytes)"
scalar wanSansMPLS.vancouverLSR.ppp[2].ppp 	rcvdPkFromHL:count 	0
attr interpolationmode  none
attr source  packetReceivedFromUpper
attr title  "packets received from higher layer, count"
scalar wanSansMPLS.vancouverLSR.ppp[2].ppp 	rcvdPkFromHL:sum(packetBytes) 	0
attr interpolationmode  none
attr source  packetReceivedFromUpper
attr title  "packets received from higher layer, sum(packetBytes)"
scalar wanSansMPLS.vancouverLSR.ppp[2].ppp 	passedUpPk:count 	4999
attr interpolationmode  none
attr source  packetSentToUpper
attr title  "packets passed to higher layer, count"
scalar wanSansMPLS.vancouverLSR.ppp[2].ppp 	passedUpPk:sum(packetBytes) 	639872
attr interpolationmode  none
attr source  packetSentToUpper
attr title  "packets passed to higher layer, sum(packetBytes)"
scalar wanSansMPLS.vancouverLSR.ppp[2].ppp 	txPk:count 	0
attr interpolationmode  none
attr source  packetSentToLower
attr title  "packets transmitted, count"
scalar wanSansMPLS.vancouverLSR.ppp[2].ppp 	txPk:sum(packetBytes) 	0
attr interpolationmode  none
attr source  packetSentToLower
attr title  "packets transmitted, sum(packetBytes)"
scalar wanSansMPLS.vancouverLSR.lo0.lo 	droppedPkBitError:count 	0
attr interpolationmode  none
attr source  dropPkBitError
attr title  "packets dropped/bit error, count"
scalar wanSansMPLS.vancouverLSR.lo0.lo 	droppedPkBitError:sum(packetBytes) 	0
attr interpolationmode  none
attr source  dropPkBitError
attr title  "packets dropped/bit error, sum(packetBytes)"
scalar wanSansMPLS.vancouverLSR.lo0.lo 	rcvdPkFromHL:count 	0
attr interpolationmode  none
attr source  packetReceivedFromUpper
attr title  "packets received from higher layer, count"
scalar wanSansMPLS.vancouverLSR.lo0.lo 	rcvdPkFromHL:sum(packetBytes) 	0
attr interpolationmode  none
attr source  packetReceivedFromUpper
attr title  "packets received from higher layer, sum(packetBytes)"
scalar wanSansMPLS.vancouverLSR.lo0.lo 	passedUpPk:count 	0
attr interpolationmode  none
attr source  packetSentToUpper
attr title  "packets passed to higher layer, count"
scalar wanSansMPLS.vancouverLSR.lo0.lo 	passedUpPk:sum(packetBytes) 	0
attr interpolationmode  none
attr source  packetSentToUpper
attr title  "packets passed to higher layer, sum(packetBytes)"
scalar wanSansMPLS.edmontonLSR.networkLayer.arp 	failedARPResolution:count 	0
attr title  "ARP failed resolutions, count"
scalar wanSansMPLS.edmontonLSR.networkLayer.arp 	completedARPResolution:count 	0
attr title  "ARP completed resolutions, count"
scalar wanSansMPLS.edmontonLSR.networkLayer.arp 	initiatedARPResolution:count 	0
attr title  "ARP initiated resolutions, count"
scalar wanSansMPLS.edmontonLSR.networkLayer.arp 	sentReply:count 	0
attr title  "ARP replies sent, count"
scalar wanSansMPLS.edmontonLSR.networkLayer.arp 	sentReq:count 	0
attr title  "ARP request sent, count"
statistic wanSansMPLS.edmontonLSR.ppp[0].queue 	queueingTime:histogram
field count 523
field mean 1.2151271847036e-05
field stddev 0.00017588108389047
field sum 0.006355115176
field sqrsum 1.6224851992116e-05
field min 0
field max 0.003698976901
attr interpolationmode  none
attr title  "queueing time, histogram"
bin	-INF	0
bin	-0.0018494884505	0
bin	-0.0016028899904333	0
bin	-0.0013562915303667	0
bin	-0.0011096930703	0
bin	-0.00086309461023333	0
bin	-0.00061649615016667	0
bin	-0.0003698976901	0
bin	-0.00012329923003333	518
bin	0.00012329923003333	2
bin	0.0003698976901	1
bin	0.00061649615016667	0
bin	0.00086309461023333	0
bin	0.0011096930703	0
bin	0.0013562915303667	1
bin	0.0016028899904333	0
bin	0.0018494884505	0
bin	0.0020960869105667	0
bin	0.0023426853706333	0
bin	0.0025892838307	0
bin	0.0028358822907667	0
bin	0.0030824807508333	0
bin	0.0033290792109	0
bin	0.0035756776709667	1
bin	0.0038222761310333	0
bin	0.0040688745911	0
bin	0.0043154730511667	0
bin	0.0045620715112333	0
bin	0.0048086699713	0
bin	0.0050552684313667	0
bin	0.0053018668914333	0
bin	0.0055484653515	0
scalar wanSansMPLS.edmontonLSR.ppp[0].queue 	dropPk:count 	0
attr interpolationmode  none
attr source  dropPkByQueue
attr title  "dropped packets, count"
scalar wanSansMPLS.edmontonLSR.ppp[0].queue 	dropPk:sum(packetBytes) 	0
attr interpolationmode  none
attr source  dropPkByQueue
attr title  "dropped packets, sum(packetBytes)"
scalar wanSansMPLS.edmontonLSR.ppp[0].queue 	queueLength:max 	1
attr interpolationmode  sample-hold
attr title  "queue length, max"
scalar wanSansMPLS.edmontonLSR.ppp[0].queue 	queueLength:timeavg 	6.355115176e-05
attr interpolationmode  sample-hold
attr title  "queue length, timeavg"
scalar wanSansMPLS.edmontonLSR.ppp[0].queue 	rcvdPk:count 	523
attr interpolationmode  none
attr title  "received packets, count"
scalar wanSansMPLS.edmontonLSR.ppp[0].queue 	rcvdPk:sum(packetBytes) 	14488
attr interpolationmode  none
attr title  "received packets, sum(packetBytes)"
scalar wanSansMPLS.edmontonLSR.ppp[0].ppp 	txState:timeavg 	0.00094036269308999
attr interpolationmode  sample-hold
attr title  "tx state, timeavg"
scalar wanSansMPLS.edmontonLSR.ppp[0].ppp 	droppedPkIfaceDown:count 	0
attr interpolationmode  none
attr source  dropPkIfaceDown
attr title  "packets dropped/interface down, count"
scalar wanSansMPLS.edmontonLSR.ppp[0].ppp 	droppedPkIfaceDown:sum(packetBytes) 	0
attr interpolationmode  none
attr source  dropPkIfaceDown
attr title  "packets dropped/interface down, sum(packetBytes)"
scalar wanSansMPLS.edmontonLSR.ppp[0].ppp 	droppedPkBitError:count 	0
attr interpolationmode  none
attr source  dropPkBitError
attr title  "packets dropped/bit error, count"
scalar wanSansMPLS.edmontonLSR.ppp[0].ppp 	droppedPkBitError:sum(packetBytes) 	0
attr interpolationmode  none
attr source  dropPkBitError
attr title  "packets dropped/bit error, sum(packetBytes)"
scalar wanSansMPLS.edmontonLSR.ppp[0].ppp 	rxPkOk:count 	504
attr interpolationmode  none
attr source  rxPkOk
attr title  "packets received OK, count"
scalar wanSansMPLS.edmontonLSR.ppp[0].ppp 	rxPkOk:sum(packetBytes) 	15260
attr interpolationmode  none
attr source  rxPkOk
attr title  "packets received OK, sum(packetBytes)"
scalar wanSansMPLS.edmontonLSR.ppp[0].ppp 	rcvdPkFromHL:count 	523
attr interpolationmode  none
attr source  packetReceivedFromUpper
attr title  "packets received from higher layer, count"
scalar wanSansMPLS.edmontonLSR.ppp[0].ppp 	rcvdPkFromHL:sum(packetBytes) 	14488
attr interpolationmode  none
attr source  packetReceivedFromUpper
attr title  "packets received from higher layer, sum(packetBytes)"
scalar wanSansMPLS.edmontonLSR.ppp[0].ppp 	passedUpPk:count 	504
attr interpolationmode  none
attr source  packetSentToUpper
attr title  "packets passed to higher layer, count"
scalar wanSansMPLS.edmontonLSR.ppp[0].ppp 	passedUpPk:sum(packetBytes) 	11732
attr interpolationmode  none
attr source  packetSentToUpper
attr title  "packets passed to higher layer, sum(packetBytes)"
scalar wanSansMPLS.edmontonLSR.ppp[0].ppp 	txPk:count 	523
attr interpolationmode  none
attr source  packetSentToLower
attr title  "packets transmitted, count"
scalar wanSansMPLS.edmontonLSR.ppp[0].ppp 	txPk:sum(packetBytes) 	18149
attr interpolationmode  none
attr source  packetSentToLower
attr title  "packets transmitted, sum(packetBytes)"
statistic wanSansMPLS.edmontonLSR.ppp[1].queue 	queueingTime:histogram
field count 511
field mean 8.8877600763209e-06
field stddev 0.00011683846259165
field sum 0.004541645399
field sqrsum 7.0024904884564e-06
field min 0
field max 0.002365447764
attr interpolationmode  none
attr title  "queueing time, histogram"
bin	-INF	0
bin	-0.001182723882	0
bin	-0.0010250273644	0
bin	-0.0008673308468	0
bin	-0.0007096343292	0
bin	-0.0005519378116	0
bin	-0.000394241294	0
bin	-0.0002365447764	0
bin	-7.88482588e-05	506
bin	7.88482588e-05	0
bin	0.0002365447764	2
bin	0.000394241294	1
bin	0.0005519378116	0
bin	0.0007096343292	0
bin	0.0008673308468	1
bin	0.0010250273644	0
bin	0.001182723882	0
bin	0.0013404203996	0
bin	0.0014981169172	0
bin	0.0016558134348	0
bin	0.0018135099524	0
bin	0.00197120647	0
bin	0.0021289029876	0
bin	0.0022865995052	1
bin	0.0024442960228	0
bin	0.0026019925404	0
bin	0.002759689058	0
bin	0.0029173855756	0
bin	0.0030750820932	0
bin	0.0032327786108	0
bin	0.0033904751284	0
bin	0.003548171646	0
scalar wanSansMPLS.edmontonLSR.ppp[1].queue 	dropPk:count 	0
attr interpolationmode  none
attr source  dropPkByQueue
attr title  "dropped packets, count"
scalar wanSansMPLS.edmontonLSR.ppp[1].queue 	dropPk:sum(packetBytes) 	0
attr interpolationmode  none
attr source  dropPkByQueue
attr title  "dropped packets, sum(packetBytes)"
scalar wanSansMPLS.edmontonLSR.ppp[1].queue 	queueLength:max 	1
attr interpolationmode  sample-hold
attr title  "queue length, max"
scalar wanSansMPLS.edmontonLSR.ppp[1].queue 	queueLength:timeavg 	4.541645399e-05
attr interpolationmode  sample-hold
attr title  "queue length, timeavg"
scalar wanSansMPLS.edmontonLSR.ppp[1].queue 	rcvdPk:count 	511
attr interpolationmode  none
attr title  "received packets, count"
scalar wanSansMPLS.edmontonLSR.ppp[1].queue 	rcvdPk:sum(packetBytes) 	12736
attr interpolationmode  none
attr title  "received packets, sum(packetBytes)"
scalar wanSansMPLS.edmontonLSR.ppp[1].ppp 	txState:timeavg 	0.00084523315949999
attr interpolationmode  sample-hold
attr title  "tx state, timeavg"
scalar wanSansMPLS.edmontonLSR.ppp[1].ppp 	droppedPkIfaceDown:count 	0
attr interpolationmode  none
attr source  dropPkIfaceDown
attr title  "packets dropped/interface down, count"
scalar wanSansMPLS.edmontonLSR.ppp[1].ppp 	droppedPkIfaceDown:sum(packetBytes) 	0
attr interpolationmode  none
attr source  dropPkIfaceDown
attr title  "packets dropped/interface down, sum(packetBytes)"
scalar wanSansMPLS.edmontonLSR.ppp[1].ppp 	droppedPkBitError:count 	0
attr interpolationmode  none
attr source  dropPkBitError
attr title  "packets dropped/bit error, count"
scalar wanSansMPLS.edmontonLSR.ppp[1].ppp 	droppedPkBitError:sum(packetBytes) 	0
attr interpolationmode  none
attr source  dropPkBitError
attr title  "packets dropped/bit error, sum(packetBytes)"
scalar wanSansMPLS.edmontonLSR.ppp[1].ppp 	rxPkOk:count 	515
attr interpolationmode  none
attr source  rxPkOk
attr title  "packets received OK, count"
scalar wanSansMPLS.edmontonLSR.ppp[1].ppp 	rxPkOk:sum(packetBytes) 	16996
attr interpolationmode  none
attr source  rxPkOk
attr title  "packets received OK, sum(packetBytes)"
scalar wanSansMPLS.edmontonLSR.ppp[1].ppp 	rcvdPkFromHL:count 	511
attr interpolationmode  none
attr source  packetReceivedFromUpper
attr title  "packets received from higher layer, count"
scalar wanSansMPLS.edmontonLSR.ppp[1].ppp 	rcvdPkFromHL:sum(packetBytes) 	12736
attr interpolationmode  none
attr source  packetReceivedFromUpper
attr title  "packets received from higher layer, sum(packetBytes)"
scalar wanSansMPLS.edmontonLSR.ppp[1].ppp 	passedUpPk:count 	515
attr interpolationmode  none
attr source  packetSentToUpper
attr title  "packets passed to higher layer, count"
scalar wanSansMPLS.edmontonLSR.ppp[1].ppp 	passedUpPk:sum(packetBytes) 	13391
attr interpolationmode  none
attr source  packetSentToUpper
attr title  "packets passed to higher layer, sum(packetBytes)"
scalar wanSansMPLS.edmontonLSR.ppp[1].ppp 	txPk:count 	511
attr interpolationmode  none
attr source  packetSentToLower
attr title  "packets transmitted, count"
scalar wanSansMPLS.edmontonLSR.ppp[1].ppp 	txPk:sum(packetBytes) 	16313
attr interpolationmode  none
attr source  packetSentToLower
attr title  "packets transmitted, sum(packetBytes)"
statistic wanSansMPLS.edmontonLSR.ppp[2].queue 	queueingTime:histogram
field count 522
field mean 9.7313197720306e-06
field stddev 0.00011019615414349
field sum 0.005079748921
field sqrsum 6.376035895268e-06
field min 0
field max 0.001619333775
attr interpolationmode  none
attr title  "queueing time, histogram"
bin	-INF	0
bin	-0.0008096668875	0
bin	-0.0007017113025	0
bin	-0.0005937557175	0
bin	-0.0004858001325	0
bin	-0.0003778445475	0
bin	-0.0002698889625	0
bin	-0.0001619333775	0
bin	-5.39777925e-05	516
bin	5.39777925e-05	0
bin	0.0001619333775	1
bin	0.0002698889625	2
bin	0.0003778445475	0
bin	0.0004858001325	0
bin	0.0005937557175	0
bin	0.0007017113025	0
bin	0.0008096668875	1
bin	0.0009176224725	0
bin	0.0010255780575	0
bin	0.0011335336425	0
bin	0.0012414892275	0
bin	0.0013494448125	0
bin	0.0014574003975	0
bin	0.0015653559825	2
bin	0.0016733115675	0
bin	0.0017812671525	0
bin	0.0018892227375	0
bin	0.0019971783225	0
bin	0.0021051339075	0
bin	0.0022130894925	0
bin	0.0023210450775	0
bin	0.0024290006625	0
scalar wanSansMPLS.edmontonLSR.ppp[2].queue 	dropPk:count 	0
attr interpolationmode  none
attr source  dropPkByQueue
attr title  "dropped packets, count"
scalar wanSansMPLS.edmontonLSR.ppp[2].queue 	dropPk:sum(packetBytes) 	0
attr interpolationmode  none
attr source  dropPkByQueue
attr title  "dropped packets, sum(packetBytes)"
scalar wanSansMPLS.edmontonLSR.ppp[2].queue 	queueLength:max 	1
attr interpolationmode  sample-hold
attr title  "queue length, max"
scalar wanSansMPLS.edmontonLSR.ppp[2].queue 	queueLength:timeavg 	5.079748921e-05
attr interpolationmode  sample-hold
attr title  "queue length, timeavg"
scalar wanSansMPLS.edmontonLSR.ppp[2].queue 	rcvdPk:count 	522
attr interpolationmode  none
attr title  "received packets, count"
scalar wanSansMPLS.edmontonLSR.ppp[2].queue 	rcvdPk:sum(packetBytes) 	14107
attr interpolationmode  none
attr title  "received packets, sum(packetBytes)"
scalar wanSansMPLS.edmontonLSR.ppp[2].ppp 	txState:timeavg 	0.00092025906614999
attr interpolationmode  sample-hold
attr title  "tx state, timeavg"
scalar wanSansMPLS.edmontonLSR.ppp[2].ppp 	droppedPkIfaceDown:count 	0
attr interpolationmode  none
attr source  dropPkIfaceDown
attr title  "packets dropped/interface down, count"
scalar wanSansMPLS.edmontonLSR.ppp[2].ppp 	droppedPkIfaceDown:sum(packetBytes) 	0
attr interpolationmode  none
attr source  dropPkIfaceDown
attr title  "packets dropped/interface down, sum(packetBytes)"
scalar wanSansMPLS.edmontonLSR.ppp[2].ppp 	droppedPkBitError:count 	0
attr interpolationmode  none
attr source  dropPkBitError
attr title  "packets dropped/bit error, count"
scalar wanSansMPLS.edmontonLSR.ppp[2].ppp 	droppedPkBitError:sum(packetBytes) 	0
attr interpolationmode  none
attr source  dropPkBitError
attr title  "packets dropped/bit error, sum(packetBytes)"
scalar wanSansMPLS.edmontonLSR.ppp[2].ppp 	rxPkOk:count 	503
attr interpolationmode  none
attr source  rxPkOk
attr title  "packets received OK, count"
scalar wanSansMPLS.edmontonLSR.ppp[2].ppp 	rxPkOk:sum(packetBytes) 	14944
attr interpolationmode  none
attr source  rxPkOk
attr title  "packets received OK, sum(packetBytes)"
scalar wanSansMPLS.edmontonLSR.ppp[2].ppp 	rcvdPkFromHL:count 	522
attr interpolationmode  none
attr source  packetReceivedFromUpper
attr title  "packets received from higher layer, count"
scalar wanSansMPLS.edmontonLSR.ppp[2].ppp 	rcvdPkFromHL:sum(packetBytes) 	14107
attr interpolationmode  none
attr source  packetReceivedFromUpper
attr title  "packets received from higher layer, sum(packetBytes)"
scalar wanSansMPLS.edmontonLSR.ppp[2].ppp 	passedUpPk:count 	503
attr interpolationmode  none
attr source  packetSentToUpper
attr title  "packets passed to higher layer, count"
scalar wanSansMPLS.edmontonLSR.ppp[2].ppp 	passedUpPk:sum(packetBytes) 	11423
attr interpolationmode  none
attr source  packetSentToUpper
attr title  "packets passed to higher layer, sum(packetBytes)"
scalar wanSansMPLS.edmontonLSR.ppp[2].ppp 	txPk:count 	522
attr interpolationmode  none
attr source  packetSentToLower
attr title  "packets transmitted, count"
scalar wanSansMPLS.edmontonLSR.ppp[2].ppp 	txPk:sum(packetBytes) 	17761
attr interpolationmode  none
attr source  packetSentToLower
attr title  "packets transmitted, sum(packetBytes)"
scalar wanSansMPLS.edmontonLSR.lo0.lo 	droppedPkBitError:count 	0
[...]
attr title  "packets received from higher layer, count"
scalar wanSansMPLS.winnipegLSR.ppp[1].ppp 	rcvdPkFromHL:sum(packetBytes) 	164
attr interpolationmode  none
attr source  packetReceivedFromUpper
attr title  "packets received from higher layer, sum(packetBytes)"
scalar wanSansMPLS.winnipegLSR.ppp[1].ppp 	passedUpPk:count 	2
attr interpolationmode  none
attr source  packetSentToUpper
attr title  "packets passed to higher layer, count"
scalar wanSansMPLS.winnipegLSR.ppp[1].ppp 	passedUpPk:sum(packetBytes) 	616
attr interpolationmode  none
attr source  packetSentToUpper
attr title  "packets passed to higher layer, sum(packetBytes)"
scalar wanSansMPLS.winnipegLSR.ppp[1].ppp 	txPk:count 	1
attr interpolationmode  none
attr source  packetSentToLower
attr title  "packets transmitted, count"
scalar wanSansMPLS.winnipegLSR.ppp[1].ppp 	txPk:sum(packetBytes) 	171
attr interpolationmode  none
attr source  packetSentToLower
attr title  "packets transmitted, sum(packetBytes)"
scalar wanSansMPLS.winnipegLSR.lo0.lo 	droppedPkBitError:count 	0
attr interpolationmode  none
attr source  dropPkBitError
attr title  "packets dropped/bit error, count"
scalar wanSansMPLS.winnipegLSR.lo0.lo 	droppedPkBitError:sum(packetBytes) 	0
attr interpolationmode  none
attr source  dropPkBitError
attr title  "packets dropped/bit error, sum(packetBytes)"
scalar wanSansMPLS.winnipegLSR.lo0.lo 	rcvdPkFromHL:count 	0
attr interpolationmode  none
attr source  packetReceivedFromUpper
attr title  "packets received from higher layer, count"
scalar wanSansMPLS.winnipegLSR.lo0.lo 	rcvdPkFromHL:sum(packetBytes) 	0
attr interpolationmode  none
attr source  packetReceivedFromUpper
attr title  "packets received from higher layer, sum(packetBytes)"
scalar wanSansMPLS.winnipegLSR.lo0.lo 	passedUpPk:count 	0
attr interpolationmode  none
attr source  packetSentToUpper
attr title  "packets passed to higher layer, count"
scalar wanSansMPLS.winnipegLSR.lo0.lo 	passedUpPk:sum(packetBytes) 	0
attr interpolationmode  none
attr source  packetSentToUpper
attr title  "packets passed to higher layer, sum(packetBytes)"
scalar wanSansMPLS.montrealLSR.networkLayer.arp 	failedARPResolution:count 	0
attr title  "ARP failed resolutions, count"
scalar wanSansMPLS.montrealLSR.networkLayer.arp 	completedARPResolution:count 	0
attr title  "ARP completed resolutions, count"
scalar wanSansMPLS.montrealLSR.networkLayer.arp 	initiatedARPResolution:count 	0
attr title  "ARP initiated resolutions, count"
scalar wanSansMPLS.montrealLSR.networkLayer.arp 	sentReply:count 	0
attr title  "ARP replies sent, count"
scalar wanSansMPLS.montrealLSR.networkLayer.arp 	sentReq:count 	0
attr title  "ARP request sent, count"
statistic wanSansMPLS.montrealLSR.ppp[0].queue 	queueingTime:histogram
field count 1
field mean 0
field stddev -nan
field sum 0
field sqrsum 0
field min 0
field max 0
attr interpolationmode  none
attr title  "queueing time, histogram"
bin	-INF	0
bin	-0.5	0
bin	-0.46666666666667	0
bin	-0.43333333333333	0
bin	-0.4	0
bin	-0.36666666666667	0
bin	-0.33333333333333	0
bin	-0.3	0
bin	-0.26666666666667	0
bin	-0.23333333333333	0
bin	-0.2	0
bin	-0.16666666666667	0
bin	-0.13333333333333	0
bin	-0.1	0
bin	-0.066666666666667	0
bin	-0.033333333333333	0
bin	0	1
bin	0.033333333333333	0
bin	0.066666666666667	0
bin	0.1	0
bin	0.13333333333333	0
bin	0.16666666666667	0
bin	0.2	0
bin	0.23333333333333	0
bin	0.26666666666667	0
bin	0.3	0
bin	0.33333333333333	0
bin	0.36666666666667	0
bin	0.4	0
bin	0.43333333333333	0
bin	0.46666666666667	0
bin	0.5	0
scalar wanSansMPLS.montrealLSR.ppp[0].queue 	dropPk:count 	0
attr interpolationmode  none
attr source  dropPkByQueue
attr title  "dropped packets, count"
scalar wanSansMPLS.montrealLSR.ppp[0].queue 	dropPk:sum(packetBytes) 	0
attr interpolationmode  none
attr source  dropPkByQueue
attr title  "dropped packets, sum(packetBytes)"
scalar wanSansMPLS.montrealLSR.ppp[0].queue 	queueLength:max 	3
attr interpolationmode  sample-hold
attr title  "queue length, max"
scalar wanSansMPLS.montrealLSR.ppp[0].queue 	queueLength:timeavg 	1.085446821474
attr interpolationmode  sample-hold
attr title  "queue length, timeavg"
scalar wanSansMPLS.montrealLSR.ppp[0].queue 	rcvdPk:count 	4
attr interpolationmode  none
attr title  "received packets, count"
scalar wanSansMPLS.montrealLSR.ppp[0].queue 	rcvdPk:sum(packetBytes) 	1304
attr interpolationmode  none
attr title  "received packets, sum(packetBytes)"
scalar wanSansMPLS.montrealLSR.ppp[0].ppp 	txState:timeavg 	0.61423028996992
attr interpolationmode  sample-hold
attr title  "tx state, timeavg"
scalar wanSansMPLS.montrealLSR.ppp[0].ppp 	droppedPkIfaceDown:count 	0
attr interpolationmode  none
attr source  dropPkIfaceDown
attr title  "packets dropped/interface down, count"
scalar wanSansMPLS.montrealLSR.ppp[0].ppp 	droppedPkIfaceDown:sum(packetBytes) 	0
attr interpolationmode  none
attr source  dropPkIfaceDown
attr title  "packets dropped/interface down, sum(packetBytes)"
scalar wanSansMPLS.montrealLSR.ppp[0].ppp 	droppedPkBitError:count 	0
attr interpolationmode  none
attr source  dropPkBitError
attr title  "packets dropped/bit error, count"
scalar wanSansMPLS.montrealLSR.ppp[0].ppp 	droppedPkBitError:sum(packetBytes) 	0
attr interpolationmode  none
attr source  dropPkBitError
attr title  "packets dropped/bit error, sum(packetBytes)"
scalar wanSansMPLS.montrealLSR.ppp[0].ppp 	rxPkOk:count 	0
attr interpolationmode  none
attr source  rxPkOk
attr title  "packets received OK, count"
scalar wanSansMPLS.montrealLSR.ppp[0].ppp 	rxPkOk:sum(packetBytes) 	0
attr interpolationmode  none
attr source  rxPkOk
attr title  "packets received OK, sum(packetBytes)"
scalar wanSansMPLS.montrealLSR.ppp[0].ppp 	rcvdPkFromHL:count 	1
attr interpolationmode  none
attr source  packetReceivedFromUpper
attr title  "packets received from higher layer, count"
scalar wanSansMPLS.montrealLSR.ppp[0].ppp 	rcvdPkFromHL:sum(packetBytes) 	164
attr interpolationmode  none
attr source  packetReceivedFromUpper
attr title  "packets received from higher layer, sum(packetBytes)"
scalar wanSansMPLS.montrealLSR.ppp[0].ppp 	passedUpPk:count 	0
attr interpolationmode  none
attr source  packetSentToUpper
attr title  "packets passed to higher layer, count"
scalar wanSansMPLS.montrealLSR.ppp[0].ppp 	passedUpPk:sum(packetBytes) 	0
attr interpolationmode  none
attr source  packetSentToUpper
attr title  "packets passed to higher layer, sum(packetBytes)"
scalar wanSansMPLS.montrealLSR.ppp[0].ppp 	txPk:count 	1
attr interpolationmode  none
attr source  packetSentToLower
attr title  "packets transmitted, count"
scalar wanSansMPLS.montrealLSR.ppp[0].ppp 	txPk:sum(packetBytes) 	171
attr interpolationmode  none
attr source  packetSentToLower
attr title  "packets transmitted, sum(packetBytes)"
statistic wanSansMPLS.montrealLSR.ppp[1].queue 	queueingTime:histogram
field count 1
field mean 0
field stddev -nan
field sum 0
field sqrsum 0
field min 0
field max 0
attr interpolationmode  none
attr title  "queueing time, histogram"
bin	-INF	0
bin	-0.5	0
bin	-0.46666666666667	0
bin	-0.43333333333333	0
bin	-0.4	0
bin	-0.36666666666667	0
bin	-0.33333333333333	0
bin	-0.3	0
bin	-0.26666666666667	0
bin	-0.23333333333333	0
bin	-0.2	0
bin	-0.16666666666667	0
bin	-0.13333333333333	0
bin	-0.1	0
bin	-0.066666666666667	0
bin	-0.033333333333333	0
bin	0	1
bin	0.033333333333333	0
bin	0.066666666666667	0
bin	0.1	0
bin	0.13333333333333	0
bin	0.16666666666667	0
bin	0.2	0
bin	0.23333333333333	0
bin	0.26666666666667	0
bin	0.3	0
bin	0.33333333333333	0
bin	0.36666666666667	0
bin	0.4	0
bin	0.43333333333333	0
bin	0.46666666666667	0
bin	0.5	0
scalar wanSansMPLS.montrealLSR.ppp[1].queue 	dropPk:count 	0
attr interpolationmode  none
attr source  dropPkByQueue
attr title  "dropped packets, count"
scalar wanSansMPLS.montrealLSR.ppp[1].queue 	dropPk:sum(packetBytes) 	0
attr interpolationmode  none
attr source  dropPkByQueue
attr title  "dropped packets, sum(packetBytes)"
scalar wanSansMPLS.montrealLSR.ppp[1].queue 	queueLength:max 	3
attr interpolationmode  sample-hold
attr title  "queue length, max"
scalar wanSansMPLS.montrealLSR.ppp[1].queue 	queueLength:timeavg 	1.085446821474
attr interpolationmode  sample-hold
attr title  "queue length, timeavg"
scalar wanSansMPLS.montrealLSR.ppp[1].queue 	rcvdPk:count 	4
attr interpolationmode  none
attr title  "received packets, count"
scalar wanSansMPLS.montrealLSR.ppp[1].queue 	rcvdPk:sum(packetBytes) 	1304
attr interpolationmode  none
attr title  "received packets, sum(packetBytes)"
scalar wanSansMPLS.montrealLSR.ppp[1].ppp 	txState:timeavg 	0.61423028996992
attr interpolationmode  sample-hold
attr title  "tx state, timeavg"
scalar wanSansMPLS.montrealLSR.ppp[1].ppp 	droppedPkIfaceDown:count 	0
attr interpolationmode  none
attr source  dropPkIfaceDown
attr title  "packets dropped/interface down, count"
scalar wanSansMPLS.montrealLSR.ppp[1].ppp 	droppedPkIfaceDown:sum(packetBytes) 	0
attr interpolationmode  none
attr source  dropPkIfaceDown
attr title  "packets dropped/interface down, sum(packetBytes)"
scalar wanSansMPLS.montrealLSR.ppp[1].ppp 	droppedPkBitError:count 	0
attr interpolationmode  none
attr source  dropPkBitError
attr title  "packets dropped/bit error, count"
scalar wanSansMPLS.montrealLSR.ppp[1].ppp 	droppedPkBitError:sum(packetBytes) 	0
attr interpolationmode  none
attr source  dropPkBitError
attr title  "packets dropped/bit error, sum(packetBytes)"
scalar wanSansMPLS.montrealLSR.ppp[1].ppp 	rxPkOk:count 	0
attr interpolationmode  none
attr source  rxPkOk
attr title  "packets received OK, count"
scalar wanSansMPLS.montrealLSR.ppp[1].ppp 	rxPkOk:sum(packetBytes) 	0
attr interpolationmode  none
attr source  rxPkOk
attr title  "packets received OK, sum(packetBytes)"
scalar wanSansMPLS.montrealLSR.ppp[1].ppp 	rcvdPkFromHL:count 	1
attr interpolationmode  none
attr source  packetReceivedFromUpper
attr title  "packets received from higher layer, count"
scalar wanSansMPLS.montrealLSR.ppp[1].ppp 	rcvdPkFromHL:sum(packetBytes) 	164
attr interpolationmode  none
attr source  packetReceivedFromUpper
attr title  "packets received from higher layer, sum(packetBytes)"
scalar wanSansMPLS.montrealLSR.ppp[1].ppp 	passedUpPk:count 	0
attr interpolationmode  none
attr source  packetSentToUpper
attr title  "packets passed to higher layer, count"
scalar wanSansMPLS.montrealLSR.ppp[1].ppp 	passedUpPk:sum(packetBytes) 	0
attr interpolationmode  none
attr source  packetSentToUpper
attr title  "packets passed to higher layer, sum(packetBytes)"
scalar wanSansMPLS.montrealLSR.ppp[1].ppp 	txPk:count 	1
attr interpolationmode  none
attr source  packetSentToLower
attr title  "packets transmitted, count"
scalar wanSansMPLS.montrealLSR.ppp[1].ppp 	txPk:sum(packetBytes) 	171
attr interpolationmode  none
attr source  packetSentToLower
attr title  "packets transmitted, sum(packetBytes)"
statistic wanSansMPLS.montrealLSR.ppp[2].queue 	queueingTime:histogram
field count 2
field mean 0
field stddev 0
field sum 0
field sqrsum 0
field min 0
field max 0
attr interpolationmode  none
attr title  "queueing time, histogram"
bin	-INF	0
bin	-0.5	0
bin	-0.46666666666667	0
bin	-0.43333333333333	0
bin	-0.4	0
bin	-0.36666666666667	0
bin	-0.33333333333333	0
bin	-0.3	0
bin	-0.26666666666667	0
bin	-0.23333333333333	0
bin	-0.2	0
bin	-0.16666666666667	0
bin	-0.13333333333333	0
bin	-0.1	0
bin	-0.066666666666667	0
bin	-0.033333333333333	0
bin	0	2
bin	0.033333333333333	0
bin	0.066666666666667	0
bin	0.1	0
bin	0.13333333333333	0
bin	0.16666666666667	0
bin	0.2	0
bin	0.23333333333333	0
bin	0.26666666666667	0
bin	0.3	0
bin	0.33333333333333	0
bin	0.36666666666667	0
bin	0.4	0
bin	0.43333333333333	0
bin	0.46666666666667	0
bin	0.5	0
scalar wanSansMPLS.montrealLSR.ppp[2].queue 	dropPk:count 	0
attr interpolationmode  none
attr source  dropPkByQueue
attr title  "dropped packets, count"
scalar wanSansMPLS.montrealLSR.ppp[2].queue 	dropPk:sum(packetBytes) 	0
attr interpolationmode  none
attr source  dropPkByQueue
attr title  "dropped packets, sum(packetBytes)"
scalar wanSansMPLS.montrealLSR.ppp[2].queue 	queueLength:max 	0
attr interpolationmode  sample-hold
attr title  "queue length, max"
scalar wanSansMPLS.montrealLSR.ppp[2].queue 	queueLength:timeavg 	0
attr interpolationmode  sample-hold
attr title  "queue length, timeavg"
scalar wanSansMPLS.montrealLSR.ppp[2].queue 	rcvdPk:count 	2
attr interpolationmode  none
attr title  "received packets, count"
scalar wanSansMPLS.montrealLSR.ppp[2].queue 	rcvdPk:sum(packetBytes) 	1120
attr interpolationmode  none
attr title  "received packets, sum(packetBytes)"
scalar wanSansMPLS.montrealLSR.ppp[2].ppp 	txState:timeavg 	0.19761771105441
attr interpolationmode  sample-hold
attr title  "tx state, timeavg"
scalar wanSansMPLS.montrealLSR.ppp[2].ppp 	droppedPkIfaceDown:count 	0
attr interpolationmode  none
attr source  dropPkIfaceDown
attr title  "packets dropped/interface down, count"
scalar wanSansMPLS.montrealLSR.ppp[2].ppp 	droppedPkIfaceDown:sum(packetBytes) 	0
attr interpolationmode  none
attr source  dropPkIfaceDown
attr title  "packets dropped/interface down, sum(packetBytes)"
scalar wanSansMPLS.montrealLSR.ppp[2].ppp 	droppedPkBitError:count 	0
attr interpolationmode  none
attr source  dropPkBitError
attr title  "packets dropped/bit error, count"
scalar wanSansMPLS.montrealLSR.ppp[2].ppp 	droppedPkBitError:sum(packetBytes) 	0
attr interpolationmode  none
attr source  dropPkBitError
attr title  "packets dropped/bit error, sum(packetBytes)"
scalar wanSansMPLS.montrealLSR.ppp[2].ppp 	rxPkOk:count 	3
attr interpolationmode  none
attr source  rxPkOk
attr title  "packets received OK, count"
scalar wanSansMPLS.montrealLSR.ppp[2].ppp 	rxPkOk:sum(packetBytes) 	657
attr interpolationmode  none
attr source  rxPkOk
attr title  "packets received OK, sum(packetBytes)"
scalar wanSansMPLS.montrealLSR.ppp[2].ppp 	rcvdPkFromHL:count 	2
attr interpolationmode  none
attr source  packetReceivedFromUpper
attr title  "packets received from higher layer, count"
scalar wanSansMPLS.montrealLSR.ppp[2].ppp 	rcvdPkFromHL:sum(packetBytes) 	1120
attr interpolationmode  none
attr source  packetReceivedFromUpper
attr title  "packets received from higher layer, sum(packetBytes)"
scalar wanSansMPLS.montrealLSR.ppp[2].ppp 	passedUpPk:count 	3
attr interpolationmode  none
attr source  packetSentToUpper
attr title  "packets passed to higher layer, count"
scalar wanSansMPLS.montrealLSR.ppp[2].ppp 	passedUpPk:sum(packetBytes) 	636
attr interpolationmode  none
attr source  packetSentToUpper
attr title  "packets passed to higher layer, sum(packetBytes)"
scalar wanSansMPLS.montrealLSR.ppp[2].ppp 	txPk:count 	2
attr interpolationmode  none
attr source  packetSentToLower
attr title  "packets transmitted, count"
scalar wanSansMPLS.montrealLSR.ppp[2].ppp 	txPk:sum(packetBytes) 	1134
attr interpolationmode  none
attr source  packetSentToLower
attr title  "packets transmitted, sum(packetBytes)"
statistic wanSansMPLS.montrealLSR.ppp[3].queue 	queueingTime:histogram
field count 0
field mean -nan
field stddev -nan
field sum 0
field sqrsum 0
field min -nan
field max -nan
attr interpolationmode  none
attr title  "queueing time, histogram"
bin	-INF	0
bin	-0.5	0
bin	-0.46666666666667	0
bin	-0.43333333333333	0
bin	-0.4	0
bin	-0.36666666666667	0
bin	-0.33333333333333	0
bin	-0.3	0
bin	-0.26666666666667	0
bin	-0.23333333333333	0
bin	-0.2	0
bin	-0.16666666666667	0
bin	-0.13333333333333	0
bin	-0.1	0
bin	-0.066666666666667	0
bin	-0.033333333333333	0
bin	0	0
bin	0.033333333333333	0
bin	0.066666666666667	0
bin	0.1	0
bin	0.13333333333333	0
bin	0.16666666666667	0
bin	0.2	0
bin	0.23333333333333	0
bin	0.26666666666667	0
bin	0.3	0
bin	0.33333333333333	0
bin	0.36666666666667	0
bin	0.4	0
bin	0.43333333333333	0
bin	0.46666666666667	0
bin	0.5	0
scalar wanSansMPLS.montrealLSR.ppp[3].queue 	dropPk:count 	0
attr interpolationmode  none
attr source  dropPkByQueue
attr title  "dropped packets, count"
scalar wanSansMPLS.montrealLSR.ppp[3].queue 	dropPk:sum(packetBytes) 	0
attr interpolationmode  none
attr source  dropPkByQueue
attr title  "dropped packets, sum(packetBytes)"
scalar wanSansMPLS.montrealLSR.ppp[3].queue 	queueLength:max 	0
attr interpolationmode  sample-hold
attr title  "queue length, max"
scalar wanSansMPLS.montrealLSR.ppp[3].queue 	queueLength:timeavg 	0
attr interpolationmode  sample-hold
attr title  "queue length, timeavg"
scalar wanSansMPLS.montrealLSR.ppp[3].queue 	rcvdPk:count 	0
attr interpolationmode  none
attr title  "received packets, count"
scalar wanSansMPLS.montrealLSR.ppp[3].queue 	rcvdPk:sum(packetBytes) 	0
attr interpolationmode  none
attr title  "received packets, sum(packetBytes)"
scalar wanSansMPLS.montrealLSR.ppp[3].ppp 	txState:timeavg 	0
attr interpolationmode  sample-hold
attr title  "tx state, timeavg"
scalar wanSansMPLS.montrealLSR.ppp[3].ppp 	droppedPkIfaceDown:count 	0
attr interpolationmode  none
attr source  dropPkIfaceDown
attr title  "packets dropped/interface down, count"
scalar wanSansMPLS.montrealLSR.ppp[3].ppp 	droppedPkIfaceDown:sum(packetBytes) 	0
attr interpolationmode  none
attr source  dropPkIfaceDown
attr title  "packets dropped/interface down, sum(packetBytes)"
scalar wanSansMPLS.montrealLSR.ppp[3].ppp 	droppedPkBitError:count 	0
attr interpolationmode  none
attr source  dropPkBitError
attr title  "packets dropped/bit error, count"
scalar wanSansMPLS.montrealLSR.ppp[3].ppp 	droppedPkBitError:sum(packetBytes) 	0
attr interpolationmode  none
attr source  dropPkBitError
attr title  "packets dropped/bit error, sum(packetBytes)"
scalar wanSansMPLS.montrealLSR.ppp[3].ppp 	rxPkOk:count 	0
attr interpolationmode  none
attr source  rxPkOk
attr title  "packets received OK, count"
scalar wanSansMPLS.montrealLSR.ppp[3].ppp 	rxPkOk:sum(packetBytes) 	0
attr interpolationmode  none
attr source  rxPkOk
attr title  "packets received OK, sum(packetBytes)"
scalar wanSansMPLS.montrealLSR.ppp[3].ppp 	rcvdPkFromHL:count 	0
attr interpolationmode  none
attr source  packetReceivedFromUpper
attr title  "packets received from higher layer, count"
scalar wanSansMPLS.montrealLSR.ppp[3].ppp 	rcvdPkFromHL:sum(packetBytes) 	0
attr interpolationmode  none
attr source  packetReceivedFromUpper
attr title  "packets received from higher layer, sum(packetBytes)"
scalar wanSansMPLS.montrealLSR.ppp[3].ppp 	passedUpPk:count 	0
attr interpolationmode  none
attr source  packetSentToUpper
attr title  "packets passed to higher layer, count"
scalar wanSansMPLS.montrealLSR.ppp[3].ppp 	passedUpPk:sum(packetBytes) 	0
attr interpolationmode  none
attr source  packetSentToUpper
attr title  "packets passed to higher layer, sum(packetBytes)"
scalar wanSansMPLS.montrealLSR.ppp[3].ppp 	txPk:count 	0
attr interpolationmode  none
attr source  packetSentToLower
attr title  "packets transmitted, count"
scalar wanSansMPLS.montrealLSR.ppp[3].ppp 	txPk:sum(packetBytes) 	0
attr interpolationmode  none
attr source  packetSentToLower
attr title  "packets transmitted, sum(packetBytes)"
scalar wanSansMPLS.montrealLSR.lo0.lo 	droppedPkBitError:count 	0
attr interpolationmode  none
attr source  dropPkBitError
attr title  "packets dropped/bit error, count"
scalar wanSansMPLS.montrealLSR.lo0.lo 	droppedPkBitError:sum(packetBytes) 	0
attr interpolationmode  none
attr source  dropPkBitError
attr title  "packets dropped/bit error, sum(packetBytes)"
scalar wanSansMPLS.montrealLSR.lo0.lo 	rcvdPkFromHL:count 	0
attr interpolationmode  none
attr source  packetReceivedFromUpper
attr title  "packets received from higher layer, count"
scalar wanSansMPLS.montrealLSR.lo0.lo 	rcvdPkFromHL:sum(packetBytes) 	0
attr interpolationmode  none
attr source  packetReceivedFromUpper
attr title  "packets received from higher layer, sum(packetBytes)"
scalar wanSansMPLS.montrealLSR.lo0.lo 	passedUpPk:count 	0
attr interpolationmode  none
attr source  packetSentToUpper
attr title  "packets passed to higher layer, count"
scalar wanSansMPLS.montrealLSR.lo0.lo 	passedUpPk:sum(packetBytes) 	0
attr interpolationmode  none
attr source  packetSentToUpper
attr title  "packets passed to higher layer, sum(packetBytes)"
